
---------- Begin Simulation Statistics ----------
sim_seconds                                  0.071632                       # Number of seconds simulated
sim_ticks                                 71631815000                       # Number of ticks simulated
final_tick                                71631815000                       # Number of ticks from beginning of simulation (restored from checkpoints and never reset)
sim_freq                                 1000000000000                       # Frequency of simulated ticks
host_inst_rate                                 139136                       # Simulator instruction rate (inst/s)
host_op_rate                                   142559                       # Simulator op (including micro ops) rate (op/s)
host_tick_rate                               23752750                       # Simulator tick rate (ticks/s)
host_mem_usage                                 743648                       # Number of bytes of host memory used
host_seconds                                  3015.73                       # Real time elapsed on the host
sim_insts                                   419595862                       # Number of instructions simulated
sim_ops                                     429918638                       # Number of ops (including micro ops) simulated
system.voltage_domain.voltage                       1                       # Voltage in Volts
system.clk_domain.clock                          1000                       # Clock period in ticks
system.physmem.bytes_read::cpu0.inst            22912                       # Number of bytes read from this memory
system.physmem.bytes_read::cpu0.data            67584                       # Number of bytes read from this memory
system.physmem.bytes_read::cpu1.inst             4544                       # Number of bytes read from this memory
system.physmem.bytes_read::cpu1.data          1229440                       # Number of bytes read from this memory
system.physmem.bytes_read::cpu2.inst             4864                       # Number of bytes read from this memory
system.physmem.bytes_read::cpu2.data          1315328                       # Number of bytes read from this memory
system.physmem.bytes_read::cpu3.inst             1344                       # Number of bytes read from this memory
system.physmem.bytes_read::cpu3.data          1236864                       # Number of bytes read from this memory
system.physmem.bytes_read::cpu4.inst             6976                       # Number of bytes read from this memory
system.physmem.bytes_read::cpu4.data          1243136                       # Number of bytes read from this memory
system.physmem.bytes_read::cpu5.inst             3264                       # Number of bytes read from this memory
system.physmem.bytes_read::cpu5.data          1058048                       # Number of bytes read from this memory
system.physmem.bytes_read::cpu6.inst             1344                       # Number of bytes read from this memory
system.physmem.bytes_read::cpu6.data          1157824                       # Number of bytes read from this memory
system.physmem.bytes_read::cpu7.inst             1728                       # Number of bytes read from this memory
system.physmem.bytes_read::cpu7.data          1046080                       # Number of bytes read from this memory
system.physmem.bytes_read::cpu8.inst             6528                       # Number of bytes read from this memory
system.physmem.bytes_read::cpu8.data          1082880                       # Number of bytes read from this memory
system.physmem.bytes_read::total              9490688                       # Number of bytes read from this memory
system.physmem.bytes_inst_read::cpu0.inst        22912                       # Number of instructions bytes read from this memory
system.physmem.bytes_inst_read::cpu1.inst         4544                       # Number of instructions bytes read from this memory
system.physmem.bytes_inst_read::cpu2.inst         4864                       # Number of instructions bytes read from this memory
system.physmem.bytes_inst_read::cpu3.inst         1344                       # Number of instructions bytes read from this memory
system.physmem.bytes_inst_read::cpu4.inst         6976                       # Number of instructions bytes read from this memory
system.physmem.bytes_inst_read::cpu5.inst         3264                       # Number of instructions bytes read from this memory
system.physmem.bytes_inst_read::cpu6.inst         1344                       # Number of instructions bytes read from this memory
system.physmem.bytes_inst_read::cpu7.inst         1728                       # Number of instructions bytes read from this memory
system.physmem.bytes_inst_read::cpu8.inst         6528                       # Number of instructions bytes read from this memory
system.physmem.bytes_inst_read::total           53504                       # Number of instructions bytes read from this memory
system.physmem.bytes_written::writebacks       980224                       # Number of bytes written to this memory
system.physmem.bytes_written::total            980224                       # Number of bytes written to this memory
system.physmem.num_reads::cpu0.inst               358                       # Number of read requests responded to by this memory
system.physmem.num_reads::cpu0.data              1056                       # Number of read requests responded to by this memory
system.physmem.num_reads::cpu1.inst                71                       # Number of read requests responded to by this memory
system.physmem.num_reads::cpu1.data             19210                       # Number of read requests responded to by this memory
system.physmem.num_reads::cpu2.inst                76                       # Number of read requests responded to by this memory
system.physmem.num_reads::cpu2.data             20552                       # Number of read requests responded to by this memory
system.physmem.num_reads::cpu3.inst                21                       # Number of read requests responded to by this memory
system.physmem.num_reads::cpu3.data             19326                       # Number of read requests responded to by this memory
system.physmem.num_reads::cpu4.inst               109                       # Number of read requests responded to by this memory
system.physmem.num_reads::cpu4.data             19424                       # Number of read requests responded to by this memory
system.physmem.num_reads::cpu5.inst                51                       # Number of read requests responded to by this memory
system.physmem.num_reads::cpu5.data             16532                       # Number of read requests responded to by this memory
system.physmem.num_reads::cpu6.inst                21                       # Number of read requests responded to by this memory
system.physmem.num_reads::cpu6.data             18091                       # Number of read requests responded to by this memory
system.physmem.num_reads::cpu7.inst                27                       # Number of read requests responded to by this memory
system.physmem.num_reads::cpu7.data             16345                       # Number of read requests responded to by this memory
system.physmem.num_reads::cpu8.inst               102                       # Number of read requests responded to by this memory
system.physmem.num_reads::cpu8.data             16920                       # Number of read requests responded to by this memory
system.physmem.num_reads::total                148292                       # Number of read requests responded to by this memory
system.physmem.num_writes::writebacks           15316                       # Number of write requests responded to by this memory
system.physmem.num_writes::total                15316                       # Number of write requests responded to by this memory
system.physmem.bw_read::cpu0.inst              319858                       # Total read bandwidth from this memory (bytes/s)
system.physmem.bw_read::cpu0.data              943491                       # Total read bandwidth from this memory (bytes/s)
system.physmem.bw_read::cpu1.inst               63435                       # Total read bandwidth from this memory (bytes/s)
system.physmem.bw_read::cpu1.data            17163323                       # Total read bandwidth from this memory (bytes/s)
system.physmem.bw_read::cpu2.inst               67903                       # Total read bandwidth from this memory (bytes/s)
system.physmem.bw_read::cpu2.data            18362344                       # Total read bandwidth from this memory (bytes/s)
system.physmem.bw_read::cpu3.inst               18763                       # Total read bandwidth from this memory (bytes/s)
system.physmem.bw_read::cpu3.data            17266964                       # Total read bandwidth from this memory (bytes/s)
system.physmem.bw_read::cpu4.inst               97387                       # Total read bandwidth from this memory (bytes/s)
system.physmem.bw_read::cpu4.data            17354523                       # Total read bandwidth from this memory (bytes/s)
system.physmem.bw_read::cpu5.inst               45566                       # Total read bandwidth from this memory (bytes/s)
system.physmem.bw_read::cpu5.data            14770643                       # Total read bandwidth from this memory (bytes/s)
system.physmem.bw_read::cpu6.inst               18763                       # Total read bandwidth from this memory (bytes/s)
system.physmem.bw_read::cpu6.data            16163544                       # Total read bandwidth from this memory (bytes/s)
system.physmem.bw_read::cpu7.inst               24123                       # Total read bandwidth from this memory (bytes/s)
system.physmem.bw_read::cpu7.data            14603567                       # Total read bandwidth from this memory (bytes/s)
system.physmem.bw_read::cpu8.inst               91133                       # Total read bandwidth from this memory (bytes/s)
system.physmem.bw_read::cpu8.data            15117305                       # Total read bandwidth from this memory (bytes/s)
system.physmem.bw_read::total               132492636                       # Total read bandwidth from this memory (bytes/s)
system.physmem.bw_inst_read::cpu0.inst         319858                       # Instruction read bandwidth from this memory (bytes/s)
system.physmem.bw_inst_read::cpu1.inst          63435                       # Instruction read bandwidth from this memory (bytes/s)
system.physmem.bw_inst_read::cpu2.inst          67903                       # Instruction read bandwidth from this memory (bytes/s)
system.physmem.bw_inst_read::cpu3.inst          18763                       # Instruction read bandwidth from this memory (bytes/s)
system.physmem.bw_inst_read::cpu4.inst          97387                       # Instruction read bandwidth from this memory (bytes/s)
system.physmem.bw_inst_read::cpu5.inst          45566                       # Instruction read bandwidth from this memory (bytes/s)
system.physmem.bw_inst_read::cpu6.inst          18763                       # Instruction read bandwidth from this memory (bytes/s)
system.physmem.bw_inst_read::cpu7.inst          24123                       # Instruction read bandwidth from this memory (bytes/s)
system.physmem.bw_inst_read::cpu8.inst          91133                       # Instruction read bandwidth from this memory (bytes/s)
system.physmem.bw_inst_read::total             746931                       # Instruction read bandwidth from this memory (bytes/s)
system.physmem.bw_write::writebacks          13684199                       # Write bandwidth from this memory (bytes/s)
system.physmem.bw_write::total               13684199                       # Write bandwidth from this memory (bytes/s)
system.physmem.bw_total::writebacks          13684199                       # Total bandwidth to/from this memory (bytes/s)
system.physmem.bw_total::cpu0.inst             319858                       # Total bandwidth to/from this memory (bytes/s)
system.physmem.bw_total::cpu0.data             943491                       # Total bandwidth to/from this memory (bytes/s)
system.physmem.bw_total::cpu1.inst              63435                       # Total bandwidth to/from this memory (bytes/s)
system.physmem.bw_total::cpu1.data           17163323                       # Total bandwidth to/from this memory (bytes/s)
system.physmem.bw_total::cpu2.inst              67903                       # Total bandwidth to/from this memory (bytes/s)
system.physmem.bw_total::cpu2.data           18362344                       # Total bandwidth to/from this memory (bytes/s)
system.physmem.bw_total::cpu3.inst              18763                       # Total bandwidth to/from this memory (bytes/s)
system.physmem.bw_total::cpu3.data           17266964                       # Total bandwidth to/from this memory (bytes/s)
system.physmem.bw_total::cpu4.inst              97387                       # Total bandwidth to/from this memory (bytes/s)
system.physmem.bw_total::cpu4.data           17354523                       # Total bandwidth to/from this memory (bytes/s)
system.physmem.bw_total::cpu5.inst              45566                       # Total bandwidth to/from this memory (bytes/s)
system.physmem.bw_total::cpu5.data           14770643                       # Total bandwidth to/from this memory (bytes/s)
system.physmem.bw_total::cpu6.inst              18763                       # Total bandwidth to/from this memory (bytes/s)
system.physmem.bw_total::cpu6.data           16163544                       # Total bandwidth to/from this memory (bytes/s)
system.physmem.bw_total::cpu7.inst              24123                       # Total bandwidth to/from this memory (bytes/s)
system.physmem.bw_total::cpu7.data           14603567                       # Total bandwidth to/from this memory (bytes/s)
system.physmem.bw_total::cpu8.inst              91133                       # Total bandwidth to/from this memory (bytes/s)
system.physmem.bw_total::cpu8.data           15117305                       # Total bandwidth to/from this memory (bytes/s)
system.physmem.bw_total::total              146176835                       # Total bandwidth to/from this memory (bytes/s)
system.cpu0.branchPred.lookups               35803965                       # Number of BP lookups
system.cpu0.branchPred.condPredicted         35798431                       # Number of conditional branches predicted
system.cpu0.branchPred.condIncorrect              838                       # Number of conditional branches incorrect
system.cpu0.branchPred.BTBLookups            35797135                       # Number of BTB lookups
system.cpu0.branchPred.BTBHits               35796614                       # Number of BTB hits
system.cpu0.branchPred.BTBCorrect                   0                       # Number of correct BTB predictions (this stat may not work properly.
system.cpu0.branchPred.BTBHitPct            99.998545                       # BTB Hit Percentage
system.cpu0.branchPred.usedRAS                   2564                       # Number of times the RAS was used to get a target.
system.cpu0.branchPred.RASInCorrect                63                       # Number of incorrect RAS predictions.
system.cpu0.dstage2_mmu.stage2_tlb.walker.walks            0                       # Table walker walks requested
system.cpu0.dstage2_mmu.stage2_tlb.walker.walkRequestOrigin_Requested::Data            0                       # Table walker requests started/completed, data/inst
system.cpu0.dstage2_mmu.stage2_tlb.walker.walkRequestOrigin_Requested::Inst            0                       # Table walker requests started/completed, data/inst
system.cpu0.dstage2_mmu.stage2_tlb.walker.walkRequestOrigin_Requested::total            0                       # Table walker requests started/completed, data/inst
system.cpu0.dstage2_mmu.stage2_tlb.walker.walkRequestOrigin_Completed::Data            0                       # Table walker requests started/completed, data/inst
system.cpu0.dstage2_mmu.stage2_tlb.walker.walkRequestOrigin_Completed::Inst            0                       # Table walker requests started/completed, data/inst
system.cpu0.dstage2_mmu.stage2_tlb.walker.walkRequestOrigin_Completed::total            0                       # Table walker requests started/completed, data/inst
system.cpu0.dstage2_mmu.stage2_tlb.walker.walkRequestOrigin::total            0                       # Table walker requests started/completed, data/inst
system.cpu0.dstage2_mmu.stage2_tlb.inst_hits            0                       # ITB inst hits
system.cpu0.dstage2_mmu.stage2_tlb.inst_misses            0                       # ITB inst misses
system.cpu0.dstage2_mmu.stage2_tlb.read_hits            0                       # DTB read hits
system.cpu0.dstage2_mmu.stage2_tlb.read_misses            0                       # DTB read misses
system.cpu0.dstage2_mmu.stage2_tlb.write_hits            0                       # DTB write hits
system.cpu0.dstage2_mmu.stage2_tlb.write_misses            0                       # DTB write misses
system.cpu0.dstage2_mmu.stage2_tlb.flush_tlb            0                       # Number of times complete TLB was flushed
system.cpu0.dstage2_mmu.stage2_tlb.flush_tlb_mva            0                       # Number of times TLB was flushed by MVA
system.cpu0.dstage2_mmu.stage2_tlb.flush_tlb_mva_asid            0                       # Number of times TLB was flushed by MVA & ASID
system.cpu0.dstage2_mmu.stage2_tlb.flush_tlb_asid            0                       # Number of times TLB was flushed by ASID
system.cpu0.dstage2_mmu.stage2_tlb.flush_entries            0                       # Number of entries that have been flushed from TLB
system.cpu0.dstage2_mmu.stage2_tlb.align_faults            0                       # Number of TLB faults due to alignment restrictions
system.cpu0.dstage2_mmu.stage2_tlb.prefetch_faults            0                       # Number of TLB faults due to prefetch
system.cpu0.dstage2_mmu.stage2_tlb.domain_faults            0                       # Number of TLB faults due to domain restrictions
system.cpu0.dstage2_mmu.stage2_tlb.perms_faults            0                       # Number of TLB faults due to permissions restrictions
system.cpu0.dstage2_mmu.stage2_tlb.read_accesses            0                       # DTB read accesses
system.cpu0.dstage2_mmu.stage2_tlb.write_accesses            0                       # DTB write accesses
system.cpu0.dstage2_mmu.stage2_tlb.inst_accesses            0                       # ITB inst accesses
system.cpu0.dstage2_mmu.stage2_tlb.hits             0                       # DTB hits
system.cpu0.dstage2_mmu.stage2_tlb.misses            0                       # DTB misses
system.cpu0.dstage2_mmu.stage2_tlb.accesses            0                       # DTB accesses
system.cpu0.dtb.walker.walks                        0                       # Table walker walks requested
system.cpu0.dtb.walker.walkRequestOrigin_Requested::Data            0                       # Table walker requests started/completed, data/inst
system.cpu0.dtb.walker.walkRequestOrigin_Requested::Inst            0                       # Table walker requests started/completed, data/inst
system.cpu0.dtb.walker.walkRequestOrigin_Requested::total            0                       # Table walker requests started/completed, data/inst
system.cpu0.dtb.walker.walkRequestOrigin_Completed::Data            0                       # Table walker requests started/completed, data/inst
system.cpu0.dtb.walker.walkRequestOrigin_Completed::Inst            0                       # Table walker requests started/completed, data/inst
system.cpu0.dtb.walker.walkRequestOrigin_Completed::total            0                       # Table walker requests started/completed, data/inst
system.cpu0.dtb.walker.walkRequestOrigin::total            0                       # Table walker requests started/completed, data/inst
system.cpu0.dtb.inst_hits                           0                       # ITB inst hits
system.cpu0.dtb.inst_misses                         0                       # ITB inst misses
system.cpu0.dtb.read_hits                           0                       # DTB read hits
system.cpu0.dtb.read_misses                         0                       # DTB read misses
system.cpu0.dtb.write_hits                          0                       # DTB write hits
system.cpu0.dtb.write_misses                        0                       # DTB write misses
system.cpu0.dtb.flush_tlb                           0                       # Number of times complete TLB was flushed
system.cpu0.dtb.flush_tlb_mva                       0                       # Number of times TLB was flushed by MVA
system.cpu0.dtb.flush_tlb_mva_asid                  0                       # Number of times TLB was flushed by MVA & ASID
system.cpu0.dtb.flush_tlb_asid                      0                       # Number of times TLB was flushed by ASID
system.cpu0.dtb.flush_entries                       0                       # Number of entries that have been flushed from TLB
system.cpu0.dtb.align_faults                        0                       # Number of TLB faults due to alignment restrictions
system.cpu0.dtb.prefetch_faults                     0                       # Number of TLB faults due to prefetch
system.cpu0.dtb.domain_faults                       0                       # Number of TLB faults due to domain restrictions
system.cpu0.dtb.perms_faults                        0                       # Number of TLB faults due to permissions restrictions
system.cpu0.dtb.read_accesses                       0                       # DTB read accesses
system.cpu0.dtb.write_accesses                      0                       # DTB write accesses
system.cpu0.dtb.inst_accesses                       0                       # ITB inst accesses
system.cpu0.dtb.hits                                0                       # DTB hits
system.cpu0.dtb.misses                              0                       # DTB misses
system.cpu0.dtb.accesses                            0                       # DTB accesses
system.cpu0.istage2_mmu.stage2_tlb.walker.walks            0                       # Table walker walks requested
system.cpu0.istage2_mmu.stage2_tlb.walker.walkRequestOrigin_Requested::Data            0                       # Table walker requests started/completed, data/inst
system.cpu0.istage2_mmu.stage2_tlb.walker.walkRequestOrigin_Requested::Inst            0                       # Table walker requests started/completed, data/inst
system.cpu0.istage2_mmu.stage2_tlb.walker.walkRequestOrigin_Requested::total            0                       # Table walker requests started/completed, data/inst
system.cpu0.istage2_mmu.stage2_tlb.walker.walkRequestOrigin_Completed::Data            0                       # Table walker requests started/completed, data/inst
system.cpu0.istage2_mmu.stage2_tlb.walker.walkRequestOrigin_Completed::Inst            0                       # Table walker requests started/completed, data/inst
system.cpu0.istage2_mmu.stage2_tlb.walker.walkRequestOrigin_Completed::total            0                       # Table walker requests started/completed, data/inst
system.cpu0.istage2_mmu.stage2_tlb.walker.walkRequestOrigin::total            0                       # Table walker requests started/completed, data/inst
system.cpu0.istage2_mmu.stage2_tlb.inst_hits            0                       # ITB inst hits
system.cpu0.istage2_mmu.stage2_tlb.inst_misses            0                       # ITB inst misses
system.cpu0.istage2_mmu.stage2_tlb.read_hits            0                       # DTB read hits
system.cpu0.istage2_mmu.stage2_tlb.read_misses            0                       # DTB read misses
system.cpu0.istage2_mmu.stage2_tlb.write_hits            0                       # DTB write hits
system.cpu0.istage2_mmu.stage2_tlb.write_misses            0                       # DTB write misses
system.cpu0.istage2_mmu.stage2_tlb.flush_tlb            0                       # Number of times complete TLB was flushed
system.cpu0.istage2_mmu.stage2_tlb.flush_tlb_mva            0                       # Number of times TLB was flushed by MVA
system.cpu0.istage2_mmu.stage2_tlb.flush_tlb_mva_asid            0                       # Number of times TLB was flushed by MVA & ASID
system.cpu0.istage2_mmu.stage2_tlb.flush_tlb_asid            0                       # Number of times TLB was flushed by ASID
system.cpu0.istage2_mmu.stage2_tlb.flush_entries            0                       # Number of entries that have been flushed from TLB
system.cpu0.istage2_mmu.stage2_tlb.align_faults            0                       # Number of TLB faults due to alignment restrictions
system.cpu0.istage2_mmu.stage2_tlb.prefetch_faults            0                       # Number of TLB faults due to prefetch
system.cpu0.istage2_mmu.stage2_tlb.domain_faults            0                       # Number of TLB faults due to domain restrictions
system.cpu0.istage2_mmu.stage2_tlb.perms_faults            0                       # Number of TLB faults due to permissions restrictions
system.cpu0.istage2_mmu.stage2_tlb.read_accesses            0                       # DTB read accesses
system.cpu0.istage2_mmu.stage2_tlb.write_accesses            0                       # DTB write accesses
system.cpu0.istage2_mmu.stage2_tlb.inst_accesses            0                       # ITB inst accesses
system.cpu0.istage2_mmu.stage2_tlb.hits             0                       # DTB hits
system.cpu0.istage2_mmu.stage2_tlb.misses            0                       # DTB misses
system.cpu0.istage2_mmu.stage2_tlb.accesses            0                       # DTB accesses
system.cpu0.itb.walker.walks                        0                       # Table walker walks requested
system.cpu0.itb.walker.walkRequestOrigin_Requested::Data            0                       # Table walker requests started/completed, data/inst
system.cpu0.itb.walker.walkRequestOrigin_Requested::Inst            0                       # Table walker requests started/completed, data/inst
system.cpu0.itb.walker.walkRequestOrigin_Requested::total            0                       # Table walker requests started/completed, data/inst
system.cpu0.itb.walker.walkRequestOrigin_Completed::Data            0                       # Table walker requests started/completed, data/inst
system.cpu0.itb.walker.walkRequestOrigin_Completed::Inst            0                       # Table walker requests started/completed, data/inst
system.cpu0.itb.walker.walkRequestOrigin_Completed::total            0                       # Table walker requests started/completed, data/inst
system.cpu0.itb.walker.walkRequestOrigin::total            0                       # Table walker requests started/completed, data/inst
system.cpu0.itb.inst_hits                           0                       # ITB inst hits
system.cpu0.itb.inst_misses                         0                       # ITB inst misses
system.cpu0.itb.read_hits                           0                       # DTB read hits
system.cpu0.itb.read_misses                         0                       # DTB read misses
system.cpu0.itb.write_hits                          0                       # DTB write hits
system.cpu0.itb.write_misses                        0                       # DTB write misses
system.cpu0.itb.flush_tlb                           0                       # Number of times complete TLB was flushed
system.cpu0.itb.flush_tlb_mva                       0                       # Number of times TLB was flushed by MVA
system.cpu0.itb.flush_tlb_mva_asid                  0                       # Number of times TLB was flushed by MVA & ASID
system.cpu0.itb.flush_tlb_asid                      0                       # Number of times TLB was flushed by ASID
system.cpu0.itb.flush_entries                       0                       # Number of entries that have been flushed from TLB
system.cpu0.itb.align_faults                        0                       # Number of TLB faults due to alignment restrictions
system.cpu0.itb.prefetch_faults                     0                       # Number of TLB faults due to prefetch
system.cpu0.itb.domain_faults                       0                       # Number of TLB faults due to domain restrictions
system.cpu0.itb.perms_faults                        0                       # Number of TLB faults due to permissions restrictions
system.cpu0.itb.read_accesses                       0                       # DTB read accesses
system.cpu0.itb.write_accesses                      0                       # DTB write accesses
system.cpu0.itb.inst_accesses                       0                       # ITB inst accesses
system.cpu0.itb.hits                                0                       # DTB hits
system.cpu0.itb.misses                              0                       # DTB misses
system.cpu0.itb.accesses                            0                       # DTB accesses
system.cpu0.workload.num_syscalls              679790                       # Number of system calls
system.cpu0.numCycles                        71631816                       # number of cpu cycles simulated
system.cpu0.numWorkItemsStarted                     0                       # number of work items this cpu started
system.cpu0.numWorkItemsCompleted                   0                       # number of work items this cpu completed
system.cpu0.fetch.icacheStallCycles             14299                       # Number of cycles fetch is stalled on an Icache miss
system.cpu0.fetch.Insts                     179010306                       # Number of instructions fetch has processed
system.cpu0.fetch.Branches                   35803965                       # Number of branches that fetch encountered
system.cpu0.fetch.predictedBranches          35799178                       # Number of branches that fetch has predicted taken
system.cpu0.fetch.Cycles                     71608420                       # Number of cycles fetch has run and was not squashing or blocked
system.cpu0.fetch.SquashCycles                   2031                       # Number of cycles fetch has spent squashing
system.cpu0.fetch.PendingTrapStallCycles          165                       # Number of stall cycles due to pending traps
system.cpu0.fetch.CacheLines                     7426                       # Number of cache lines fetched
system.cpu0.fetch.IcacheSquashes                  305                       # Number of outstanding Icache misses that were squashed
system.cpu0.fetch.rateDist::samples          71623899                       # Number of instructions fetched each cycle (Total)
system.cpu0.fetch.rateDist::mean             2.499388                       # Number of instructions fetched each cycle (Total)
system.cpu0.fetch.rateDist::stdev            0.501621                       # Number of instructions fetched each cycle (Total)
system.cpu0.fetch.rateDist::underflows              0      0.00%      0.00% # Number of instructions fetched each cycle (Total)
system.cpu0.fetch.rateDist::0                   18403      0.03%      0.03% # Number of instructions fetched each cycle (Total)
system.cpu0.fetch.rateDist::1                    2933      0.00%      0.03% # Number of instructions fetched each cycle (Total)
system.cpu0.fetch.rateDist::2                35794684     49.98%     50.01% # Number of instructions fetched each cycle (Total)
system.cpu0.fetch.rateDist::3                35807879     49.99%    100.00% # Number of instructions fetched each cycle (Total)
system.cpu0.fetch.rateDist::overflows               0      0.00%    100.00% # Number of instructions fetched each cycle (Total)
system.cpu0.fetch.rateDist::min_value               0                       # Number of instructions fetched each cycle (Total)
system.cpu0.fetch.rateDist::max_value               3                       # Number of instructions fetched each cycle (Total)
system.cpu0.fetch.rateDist::total            71623899                       # Number of instructions fetched each cycle (Total)
system.cpu0.fetch.branchRate                 0.499833                       # Number of branch fetches per cycle
system.cpu0.fetch.rate                       2.499033                       # Number of inst fetches per cycle
system.cpu0.decode.IdleCycles                   13402                       # Number of cycles decode is idle
system.cpu0.decode.BlockedCycles                 5930                       # Number of cycles decode is blocked
system.cpu0.decode.RunCycles                 71602910                       # Number of cycles decode is running
system.cpu0.decode.UnblockCycles                  848                       # Number of cycles decode is unblocking
system.cpu0.decode.SquashCycles                   809                       # Number of cycles decode is squashing
system.cpu0.decode.BranchResolved                2571                       # Number of times decode resolved a branch
system.cpu0.decode.BranchMispred                  226                       # Number of times decode detected a branch misprediction
system.cpu0.decode.DecodedInsts             179011996                       # Number of instructions handled by decode
system.cpu0.decode.SquashedInsts                  464                       # Number of squashed instructions handled by decode
system.cpu0.rename.SquashCycles                   809                       # Number of cycles rename is squashing
system.cpu0.rename.IdleCycles                   14261                       # Number of cycles rename is idle
system.cpu0.rename.BlockCycles                    743                       # Number of cycles rename is blocking
system.cpu0.rename.serializeStallCycles          2812                       # count of cycles rename stalled for serializing inst
system.cpu0.rename.RunCycles                 71602816                       # Number of cycles rename is running
system.cpu0.rename.UnblockCycles                 2458                       # Number of cycles rename is unblocking
system.cpu0.rename.RenamedInsts             179010393                       # Number of instructions processed by rename
system.cpu0.rename.IQFullEvents                     1                       # Number of times rename has blocked due to IQ full
system.cpu0.rename.SQFullEvents                  2349                       # Number of times rename has blocked due to SQ full
system.cpu0.rename.RenamedOperands          179012562                       # Number of destination operands rename has renamed
system.cpu0.rename.RenameLookups            823433725                       # Number of register rename lookups that rename has made
system.cpu0.rename.int_rename_lookups       179012201                       # Number of integer rename lookups
system.cpu0.rename.fp_rename_lookups               16                       # Number of floating rename lookups
system.cpu0.rename.CommittedMaps            179000797                       # Number of HB maps that are committed
system.cpu0.rename.UndoneMaps                   11765                       # Number of HB maps that are undone due to squashing
system.cpu0.rename.serializingInsts                69                       # count of serializing insts renamed
system.cpu0.rename.tempSerializingInsts            70                       # count of temporary serializing insts renamed
system.cpu0.rename.skidInsts                     1132                       # count of insts added to the skid buffer
system.cpu0.memDep0.insertedLoads            71588088                       # Number of loads inserted to the mem dependence unit.
system.cpu0.memDep0.insertedStores           35797675                       # Number of stores inserted to the mem dependence unit.
system.cpu0.memDep0.conflictingLoads         35790968                       # Number of conflicting loads.
system.cpu0.memDep0.conflictingStores        35790894                       # Number of conflicting stores.
system.cpu0.iq.iqInstsAdded                 179007483                       # Number of instructions added to the IQ (excludes non-spec)
system.cpu0.iq.iqNonSpecInstsAdded                 94                       # Number of non-speculative instructions added to the IQ
system.cpu0.iq.iqInstsIssued                179004627                       # Number of instructions issued
system.cpu0.iq.iqSquashedInstsIssued              574                       # Number of squashed instructions issued
system.cpu0.iq.iqSquashedInstsExamined           7740                       # Number of squashed instructions iterated over during squash; mainly for profiling
system.cpu0.iq.iqSquashedOperandsExamined        18823                       # Number of squashed operands that are examined and possibly removed from graph
system.cpu0.iq.iqSquashedNonSpecRemoved             9                       # Number of squashed non-spec instructions that were removed
system.cpu0.iq.issued_per_cycle::samples     71623899                       # Number of insts issued each cycle
system.cpu0.iq.issued_per_cycle::mean        2.499230                       # Number of insts issued each cycle
system.cpu0.iq.issued_per_cycle::stdev       0.708235                       # Number of insts issued each cycle
system.cpu0.iq.issued_per_cycle::underflows            0      0.00%      0.00% # Number of insts issued each cycle
system.cpu0.iq.issued_per_cycle::0              18338      0.03%      0.03% # Number of insts issued each cycle
system.cpu0.iq.issued_per_cycle::1            8955200     12.50%     12.53% # Number of insts issued each cycle
system.cpu0.iq.issued_per_cycle::2           17901656     24.99%     37.52% # Number of insts issued each cycle
system.cpu0.iq.issued_per_cycle::3           44748705     62.48%    100.00% # Number of insts issued each cycle
system.cpu0.iq.issued_per_cycle::overflows            0      0.00%    100.00% # Number of insts issued each cycle
system.cpu0.iq.issued_per_cycle::min_value            0                       # Number of insts issued each cycle
system.cpu0.iq.issued_per_cycle::max_value            3                       # Number of insts issued each cycle
system.cpu0.iq.issued_per_cycle::total       71623899                       # Number of insts issued each cycle
system.cpu0.iq.fu_full::No_OpClass                  0                       # attempts to use FU when none available
system.cpu0.iq.fu_full::IntAlu                      0                       # attempts to use FU when none available
system.cpu0.iq.fu_full::IntMult                     0                       # attempts to use FU when none available
system.cpu0.iq.fu_full::IntDiv                      0                       # attempts to use FU when none available
system.cpu0.iq.fu_full::FloatAdd                    0                       # attempts to use FU when none available
system.cpu0.iq.fu_full::FloatCmp                    0                       # attempts to use FU when none available
system.cpu0.iq.fu_full::FloatCvt                    0                       # attempts to use FU when none available
system.cpu0.iq.fu_full::FloatMult                   0                       # attempts to use FU when none available
system.cpu0.iq.fu_full::FloatDiv                    0                       # attempts to use FU when none available
system.cpu0.iq.fu_full::FloatSqrt                   0                       # attempts to use FU when none available
system.cpu0.iq.fu_full::SimdAdd                     0                       # attempts to use FU when none available
system.cpu0.iq.fu_full::SimdAddAcc                  0                       # attempts to use FU when none available
system.cpu0.iq.fu_full::SimdAlu                     0                       # attempts to use FU when none available
system.cpu0.iq.fu_full::SimdCmp                     0                       # attempts to use FU when none available
system.cpu0.iq.fu_full::SimdCvt                     0                       # attempts to use FU when none available
system.cpu0.iq.fu_full::SimdMisc                    0                       # attempts to use FU when none available
system.cpu0.iq.fu_full::SimdMult                    0                       # attempts to use FU when none available
system.cpu0.iq.fu_full::SimdMultAcc                 0                       # attempts to use FU when none available
system.cpu0.iq.fu_full::SimdShift                   0                       # attempts to use FU when none available
system.cpu0.iq.fu_full::SimdShiftAcc                0                       # attempts to use FU when none available
system.cpu0.iq.fu_full::SimdSqrt                    0                       # attempts to use FU when none available
system.cpu0.iq.fu_full::SimdFloatAdd                0                       # attempts to use FU when none available
system.cpu0.iq.fu_full::SimdFloatAlu                0                       # attempts to use FU when none available
system.cpu0.iq.fu_full::SimdFloatCmp                0                       # attempts to use FU when none available
system.cpu0.iq.fu_full::SimdFloatCvt                0                       # attempts to use FU when none available
system.cpu0.iq.fu_full::SimdFloatDiv                0                       # attempts to use FU when none available
system.cpu0.iq.fu_full::SimdFloatMisc               0                       # attempts to use FU when none available
system.cpu0.iq.fu_full::SimdFloatMult               0                       # attempts to use FU when none available
system.cpu0.iq.fu_full::SimdFloatMultAcc            0                       # attempts to use FU when none available
system.cpu0.iq.fu_full::SimdFloatSqrt               0                       # attempts to use FU when none available
system.cpu0.iq.fu_full::MemRead                     0                       # attempts to use FU when none available
system.cpu0.iq.fu_full::MemWrite                    0                       # attempts to use FU when none available
system.cpu0.iq.fu_full::IprAccess                   0                       # attempts to use FU when none available
system.cpu0.iq.fu_full::InstPrefetch                0                       # attempts to use FU when none available
system.cpu0.iq.FU_type_0::No_OpClass                0      0.00%      0.00% # Type of FU issued
system.cpu0.iq.FU_type_0::IntAlu             71619756     40.01%     40.01% # Type of FU issued
system.cpu0.iq.FU_type_0::IntMult                   6      0.00%     40.01% # Type of FU issued
system.cpu0.iq.FU_type_0::IntDiv                    0      0.00%     40.01% # Type of FU issued
system.cpu0.iq.FU_type_0::FloatAdd                  0      0.00%     40.01% # Type of FU issued
system.cpu0.iq.FU_type_0::FloatCmp                  0      0.00%     40.01% # Type of FU issued
system.cpu0.iq.FU_type_0::FloatCvt                  0      0.00%     40.01% # Type of FU issued
system.cpu0.iq.FU_type_0::FloatMult                 0      0.00%     40.01% # Type of FU issued
system.cpu0.iq.FU_type_0::FloatDiv                  0      0.00%     40.01% # Type of FU issued
system.cpu0.iq.FU_type_0::FloatSqrt                 0      0.00%     40.01% # Type of FU issued
system.cpu0.iq.FU_type_0::SimdAdd                   0      0.00%     40.01% # Type of FU issued
system.cpu0.iq.FU_type_0::SimdAddAcc                0      0.00%     40.01% # Type of FU issued
system.cpu0.iq.FU_type_0::SimdAlu                   0      0.00%     40.01% # Type of FU issued
system.cpu0.iq.FU_type_0::SimdCmp                   0      0.00%     40.01% # Type of FU issued
system.cpu0.iq.FU_type_0::SimdCvt                   0      0.00%     40.01% # Type of FU issued
system.cpu0.iq.FU_type_0::SimdMisc                  0      0.00%     40.01% # Type of FU issued
system.cpu0.iq.FU_type_0::SimdMult                  0      0.00%     40.01% # Type of FU issued
system.cpu0.iq.FU_type_0::SimdMultAcc               0      0.00%     40.01% # Type of FU issued
system.cpu0.iq.FU_type_0::SimdShift                 0      0.00%     40.01% # Type of FU issued
system.cpu0.iq.FU_type_0::SimdShiftAcc              0      0.00%     40.01% # Type of FU issued
system.cpu0.iq.FU_type_0::SimdSqrt                  0      0.00%     40.01% # Type of FU issued
system.cpu0.iq.FU_type_0::SimdFloatAdd              0      0.00%     40.01% # Type of FU issued
system.cpu0.iq.FU_type_0::SimdFloatAlu              0      0.00%     40.01% # Type of FU issued
system.cpu0.iq.FU_type_0::SimdFloatCmp              0      0.00%     40.01% # Type of FU issued
system.cpu0.iq.FU_type_0::SimdFloatCvt              0      0.00%     40.01% # Type of FU issued
system.cpu0.iq.FU_type_0::SimdFloatDiv              0      0.00%     40.01% # Type of FU issued
system.cpu0.iq.FU_type_0::SimdFloatMisc             3      0.00%     40.01% # Type of FU issued
system.cpu0.iq.FU_type_0::SimdFloatMult             0      0.00%     40.01% # Type of FU issued
system.cpu0.iq.FU_type_0::SimdFloatMultAcc            0      0.00%     40.01% # Type of FU issued
system.cpu0.iq.FU_type_0::SimdFloatSqrt             0      0.00%     40.01% # Type of FU issued
system.cpu0.iq.FU_type_0::MemRead            71587565     39.99%     80.00% # Type of FU issued
system.cpu0.iq.FU_type_0::MemWrite           35797297     20.00%    100.00% # Type of FU issued
system.cpu0.iq.FU_type_0::IprAccess                 0      0.00%    100.00% # Type of FU issued
system.cpu0.iq.FU_type_0::InstPrefetch              0      0.00%    100.00% # Type of FU issued
system.cpu0.iq.FU_type_0::total             179004627                       # Type of FU issued
system.cpu0.iq.rate                          2.498954                       # Inst issue rate
system.cpu0.iq.fu_busy_cnt                          0                       # FU busy when requested
system.cpu0.iq.fu_busy_rate                         0                       # FU busy rate (busy events/executed inst)
system.cpu0.iq.int_inst_queue_reads         429633695                       # Number of integer instruction queue reads
system.cpu0.iq.int_inst_queue_writes        179015457                       # Number of integer instruction queue writes
system.cpu0.iq.int_inst_queue_wakeup_accesses    179003099                       # Number of integer instruction queue wakeup accesses
system.cpu0.iq.fp_inst_queue_reads                 32                       # Number of floating instruction queue reads
system.cpu0.iq.fp_inst_queue_writes                16                       # Number of floating instruction queue writes
system.cpu0.iq.fp_inst_queue_wakeup_accesses           16                       # Number of floating instruction queue wakeup accesses
system.cpu0.iq.int_alu_accesses             179004611                       # Number of integer alu accesses
system.cpu0.iq.fp_alu_accesses                     16                       # Number of floating point alu accesses
system.cpu0.iew.lsq.thread0.forwLoads        35791236                       # Number of loads that had data forwarded from stores
system.cpu0.iew.lsq.thread0.invAddrLoads            0                       # Number of loads ignored due to an invalid address
system.cpu0.iew.lsq.thread0.squashedLoads         2199                       # Number of loads squashed
system.cpu0.iew.lsq.thread0.ignoredResponses            1                       # Number of memory responses ignored because the instruction is squashed
system.cpu0.iew.lsq.thread0.memOrderViolation          157                       # Number of memory ordering violations
system.cpu0.iew.lsq.thread0.squashedStores          861                       # Number of stores squashed
system.cpu0.iew.lsq.thread0.invAddrSwpfs            0                       # Number of software prefetches ignored due to an invalid address
system.cpu0.iew.lsq.thread0.blockedLoads            0                       # Number of blocked loads due to partial load-store forwarding
system.cpu0.iew.lsq.thread0.rescheduledLoads            4                       # Number of loads that were rescheduled
system.cpu0.iew.lsq.thread0.cacheBlocked            9                       # Number of times an access to memory failed due to the cache being blocked
system.cpu0.iew.iewIdleCycles                       0                       # Number of cycles IEW is idle
system.cpu0.iew.iewSquashCycles                   809                       # Number of cycles IEW is squashing
system.cpu0.iew.iewBlockCycles                    629                       # Number of cycles IEW is blocking
system.cpu0.iew.iewUnblockCycles                  118                       # Number of cycles IEW is unblocking
system.cpu0.iew.iewDispatchedInsts          179007598                       # Number of instructions dispatched to IQ
system.cpu0.iew.iewDispSquashedInsts              483                       # Number of squashed instructions skipped by dispatch
system.cpu0.iew.iewDispLoadInsts             71588088                       # Number of dispatched load instructions
system.cpu0.iew.iewDispStoreInsts            35797675                       # Number of dispatched store instructions
system.cpu0.iew.iewDispNonSpecInsts                64                       # Number of dispatched non-speculative instructions
system.cpu0.iew.iewIQFullEvents                     3                       # Number of times the IQ has become full, causing a stall
system.cpu0.iew.iewLSQFullEvents                    0                       # Number of times the LSQ has become full, causing a stall
system.cpu0.iew.memOrderViolationEvents           157                       # Number of memory order violations
system.cpu0.iew.predictedTakenIncorrect            88                       # Number of branches that were predicted taken incorrectly
system.cpu0.iew.predictedNotTakenIncorrect          587                       # Number of branches that were predicted not taken incorrectly
system.cpu0.iew.branchMispredicts                 675                       # Number of branch mispredicts detected at execute
system.cpu0.iew.iewExecutedInsts            179003705                       # Number of executed instructions
system.cpu0.iew.iewExecLoadInsts             71587323                       # Number of load instructions executed
system.cpu0.iew.iewExecSquashedInsts              922                       # Number of squashed instructions skipped in execute
system.cpu0.iew.exec_swp                            0                       # number of swp insts executed
system.cpu0.iew.exec_nop                           21                       # number of nop insts executed
system.cpu0.iew.exec_refs                   107384361                       # number of memory reference insts executed
system.cpu0.iew.exec_branches                35801654                       # Number of branches executed
system.cpu0.iew.exec_stores                  35797038                       # Number of stores executed
system.cpu0.iew.exec_rate                    2.498941                       # Inst execution rate
system.cpu0.iew.wb_sent                     179003225                       # cumulative count of insts sent to commit
system.cpu0.iew.wb_count                    179003115                       # cumulative count of insts written-back
system.cpu0.iew.wb_producers                107397196                       # num instructions producing a value
system.cpu0.iew.wb_consumers                107408896                       # num instructions consuming a value
system.cpu0.iew.wb_penalized                        0                       # number of instrctions required to write to 'other' IQ
system.cpu0.iew.wb_rate                      2.498933                       # insts written-back per cycle
system.cpu0.iew.wb_fanout                    0.999891                       # average fanout of values written-back
system.cpu0.iew.wb_penalized_rate                   0                       # fraction of instructions written-back that wrote to 'other' IQ
system.cpu0.commit.commitSquashedInsts           7760                       # The number of squashed insts skipped by commit
system.cpu0.commit.commitNonSpecStalls             85                       # The number of times commit has been forced to stall to communicate backwards
system.cpu0.commit.branchMispredicts              632                       # The number of times a branch was mispredicted
system.cpu0.commit.committed_per_cycle::samples     71622522                       # Number of insts commited each cycle
system.cpu0.commit.committed_per_cycle::mean     2.499212                       # Number of insts commited each cycle
system.cpu0.commit.committed_per_cycle::stdev     1.581388                       # Number of insts commited each cycle
system.cpu0.commit.committed_per_cycle::underflows            0      0.00%      0.00% # Number of insts commited each cycle
system.cpu0.commit.committed_per_cycle::0        19732      0.03%      0.03% # Number of insts commited each cycle
system.cpu0.commit.committed_per_cycle::1     35799756     49.98%     50.01% # Number of insts commited each cycle
system.cpu0.commit.committed_per_cycle::2         3608      0.01%     50.02% # Number of insts commited each cycle
system.cpu0.commit.committed_per_cycle::3      8953707     12.50%     62.52% # Number of insts commited each cycle
system.cpu0.commit.committed_per_cycle::4     17897578     24.99%     87.51% # Number of insts commited each cycle
system.cpu0.commit.committed_per_cycle::5      8947790     12.49%    100.00% # Number of insts commited each cycle
system.cpu0.commit.committed_per_cycle::6           79      0.00%    100.00% # Number of insts commited each cycle
system.cpu0.commit.committed_per_cycle::7          168      0.00%    100.00% # Number of insts commited each cycle
system.cpu0.commit.committed_per_cycle::8          104      0.00%    100.00% # Number of insts commited each cycle
system.cpu0.commit.committed_per_cycle::overflows            0      0.00%    100.00% # Number of insts commited each cycle
system.cpu0.commit.committed_per_cycle::min_value            0                       # Number of insts commited each cycle
system.cpu0.commit.committed_per_cycle::max_value            8                       # Number of insts commited each cycle
system.cpu0.commit.committed_per_cycle::total     71622522                       # Number of insts commited each cycle
system.cpu0.commit.committedInsts           178996283                       # Number of instructions committed
system.cpu0.commit.committedOps             178999837                       # Number of ops (including micro ops) committed
system.cpu0.commit.swp_count                        0                       # Number of s/w prefetches committed
system.cpu0.commit.refs                     107382703                       # Number of memory references committed
system.cpu0.commit.loads                     71585889                       # Number of loads committed
system.cpu0.commit.membars                         30                       # Number of memory barriers committed
system.cpu0.commit.branches                  35801097                       # Number of branches committed
system.cpu0.commit.fp_insts                        16                       # Number of committed floating point instructions.
system.cpu0.commit.int_insts                143203276                       # Number of committed integer instructions.
system.cpu0.commit.function_calls                2224                       # Number of function calls committed.
system.cpu0.commit.op_class_0::No_OpClass            0      0.00%      0.00% # Class of committed instruction
system.cpu0.commit.op_class_0::IntAlu        71617125     40.01%     40.01% # Class of committed instruction
system.cpu0.commit.op_class_0::IntMult              6      0.00%     40.01% # Class of committed instruction
system.cpu0.commit.op_class_0::IntDiv               0      0.00%     40.01% # Class of committed instruction
system.cpu0.commit.op_class_0::FloatAdd             0      0.00%     40.01% # Class of committed instruction
system.cpu0.commit.op_class_0::FloatCmp             0      0.00%     40.01% # Class of committed instruction
system.cpu0.commit.op_class_0::FloatCvt             0      0.00%     40.01% # Class of committed instruction
system.cpu0.commit.op_class_0::FloatMult            0      0.00%     40.01% # Class of committed instruction
system.cpu0.commit.op_class_0::FloatDiv             0      0.00%     40.01% # Class of committed instruction
system.cpu0.commit.op_class_0::FloatSqrt            0      0.00%     40.01% # Class of committed instruction
system.cpu0.commit.op_class_0::SimdAdd              0      0.00%     40.01% # Class of committed instruction
system.cpu0.commit.op_class_0::SimdAddAcc            0      0.00%     40.01% # Class of committed instruction
system.cpu0.commit.op_class_0::SimdAlu              0      0.00%     40.01% # Class of committed instruction
system.cpu0.commit.op_class_0::SimdCmp              0      0.00%     40.01% # Class of committed instruction
system.cpu0.commit.op_class_0::SimdCvt              0      0.00%     40.01% # Class of committed instruction
system.cpu0.commit.op_class_0::SimdMisc             0      0.00%     40.01% # Class of committed instruction
system.cpu0.commit.op_class_0::SimdMult             0      0.00%     40.01% # Class of committed instruction
system.cpu0.commit.op_class_0::SimdMultAcc            0      0.00%     40.01% # Class of committed instruction
system.cpu0.commit.op_class_0::SimdShift            0      0.00%     40.01% # Class of committed instruction
system.cpu0.commit.op_class_0::SimdShiftAcc            0      0.00%     40.01% # Class of committed instruction
system.cpu0.commit.op_class_0::SimdSqrt             0      0.00%     40.01% # Class of committed instruction
system.cpu0.commit.op_class_0::SimdFloatAdd            0      0.00%     40.01% # Class of committed instruction
system.cpu0.commit.op_class_0::SimdFloatAlu            0      0.00%     40.01% # Class of committed instruction
system.cpu0.commit.op_class_0::SimdFloatCmp            0      0.00%     40.01% # Class of committed instruction
system.cpu0.commit.op_class_0::SimdFloatCvt            0      0.00%     40.01% # Class of committed instruction
system.cpu0.commit.op_class_0::SimdFloatDiv            0      0.00%     40.01% # Class of committed instruction
system.cpu0.commit.op_class_0::SimdFloatMisc            3      0.00%     40.01% # Class of committed instruction
system.cpu0.commit.op_class_0::SimdFloatMult            0      0.00%     40.01% # Class of committed instruction
system.cpu0.commit.op_class_0::SimdFloatMultAcc            0      0.00%     40.01% # Class of committed instruction
system.cpu0.commit.op_class_0::SimdFloatSqrt            0      0.00%     40.01% # Class of committed instruction
system.cpu0.commit.op_class_0::MemRead       71585889     39.99%     80.00% # Class of committed instruction
system.cpu0.commit.op_class_0::MemWrite      35796814     20.00%    100.00% # Class of committed instruction
system.cpu0.commit.op_class_0::IprAccess            0      0.00%    100.00% # Class of committed instruction
system.cpu0.commit.op_class_0::InstPrefetch            0      0.00%    100.00% # Class of committed instruction
system.cpu0.commit.op_class_0::total        178999837                       # Class of committed instruction
system.cpu0.commit.bw_lim_events                  104                       # number cycles where commit BW limit reached
system.cpu0.rob.rob_reads                   250629702                       # The number of ROB reads
system.cpu0.rob.rob_writes                  358016578                       # The number of ROB writes
system.cpu0.timesIdled                            258                       # Number of times that the entire CPU went into an idle state and unscheduled itself
system.cpu0.idleCycles                           7917                       # Total number of cycles that the CPU has spent unscheduled due to idling
system.cpu0.committedInsts                  178996283                       # Number of Instructions Simulated
system.cpu0.committedOps                    178999837                       # Number of Ops (including micro ops) Simulated
system.cpu0.cpi                              0.400186                       # CPI: Cycles Per Instruction
system.cpu0.cpi_total                        0.400186                       # CPI: Total CPI of All Threads
system.cpu0.ipc                              2.498838                       # IPC: Instructions Per Cycle
system.cpu0.ipc_total                        2.498838                       # IPC: Total IPC of All Threads
system.cpu0.int_regfile_reads               179002414                       # number of integer regfile reads
system.cpu0.int_regfile_writes               71610458                       # number of integer regfile writes
system.cpu0.fp_regfile_reads                     1296                       # number of floating regfile reads
system.cpu0.cc_regfile_reads                751771240                       # number of cc regfile reads
system.cpu0.cc_regfile_writes               107393965                       # number of cc regfile writes
system.cpu0.misc_regfile_reads              109624180                       # number of misc regfile reads
system.cpu0.misc_regfile_writes                    62                       # number of misc regfile writes
system.cpu0.dcache.tags.replacements              612                       # number of replacements
system.cpu0.dcache.tags.tagsinuse           68.148502                       # Cycle average of tags in use
system.cpu0.dcache.tags.total_refs           71586742                       # Total number of references to valid blocks.
system.cpu0.dcache.tags.sampled_refs              695                       # Sample count of references to valid blocks.
system.cpu0.dcache.tags.avg_refs         103002.506475                       # Average number of references to valid blocks.
system.cpu0.dcache.tags.warmup_cycle         26923000                       # Cycle when the warmup percentage was hit.
system.cpu0.dcache.tags.occ_blocks::cpu0.data    68.148502                       # Average occupied blocks per requestor
system.cpu0.dcache.tags.occ_percent::cpu0.data     0.133103                       # Average percentage of cache occupancy
system.cpu0.dcache.tags.occ_percent::total     0.133103                       # Average percentage of cache occupancy
system.cpu0.dcache.tags.occ_task_id_blocks::1024           83                       # Occupied blocks per task id
system.cpu0.dcache.tags.age_task_id_blocks_1024::0           25                       # Occupied blocks per task id
system.cpu0.dcache.tags.age_task_id_blocks_1024::4           58                       # Occupied blocks per task id
system.cpu0.dcache.tags.occ_task_id_percent::1024     0.162109                       # Percentage of cache occupancy per task id
system.cpu0.dcache.tags.tag_accesses        143186432                       # Number of tag accesses
system.cpu0.dcache.tags.data_accesses       143186432                       # Number of data accesses
system.cpu0.dcache.ReadReq_hits::cpu0.data     35795578                       # number of ReadReq hits
system.cpu0.dcache.ReadReq_hits::total       35795578                       # number of ReadReq hits
system.cpu0.dcache.WriteReq_hits::cpu0.data     35792248                       # number of WriteReq hits
system.cpu0.dcache.WriteReq_hits::total      35792248                       # number of WriteReq hits
system.cpu0.dcache.LoadLockedReq_hits::cpu0.data           27                       # number of LoadLockedReq hits
system.cpu0.dcache.LoadLockedReq_hits::total           27                       # number of LoadLockedReq hits
system.cpu0.dcache.StoreCondReq_hits::cpu0.data           28                       # number of StoreCondReq hits
system.cpu0.dcache.StoreCondReq_hits::total           28                       # number of StoreCondReq hits
system.cpu0.dcache.demand_hits::cpu0.data     71587826                       # number of demand (read+write) hits
system.cpu0.dcache.demand_hits::total        71587826                       # number of demand (read+write) hits
system.cpu0.dcache.overall_hits::cpu0.data     71587826                       # number of overall hits
system.cpu0.dcache.overall_hits::total       71587826                       # number of overall hits
system.cpu0.dcache.ReadReq_misses::cpu0.data          265                       # number of ReadReq misses
system.cpu0.dcache.ReadReq_misses::total          265                       # number of ReadReq misses
system.cpu0.dcache.WriteReq_misses::cpu0.data         4486                       # number of WriteReq misses
system.cpu0.dcache.WriteReq_misses::total         4486                       # number of WriteReq misses
system.cpu0.dcache.LoadLockedReq_misses::cpu0.data            5                       # number of LoadLockedReq misses
system.cpu0.dcache.LoadLockedReq_misses::total            5                       # number of LoadLockedReq misses
system.cpu0.dcache.StoreCondReq_misses::cpu0.data            1                       # number of StoreCondReq misses
system.cpu0.dcache.StoreCondReq_misses::total            1                       # number of StoreCondReq misses
system.cpu0.dcache.demand_misses::cpu0.data         4751                       # number of demand (read+write) misses
system.cpu0.dcache.demand_misses::total          4751                       # number of demand (read+write) misses
system.cpu0.dcache.overall_misses::cpu0.data         4751                       # number of overall misses
system.cpu0.dcache.overall_misses::total         4751                       # number of overall misses
system.cpu0.dcache.ReadReq_miss_latency::cpu0.data     10084987                       # number of ReadReq miss cycles
system.cpu0.dcache.ReadReq_miss_latency::total     10084987                       # number of ReadReq miss cycles
system.cpu0.dcache.WriteReq_miss_latency::cpu0.data    224322999                       # number of WriteReq miss cycles
system.cpu0.dcache.WriteReq_miss_latency::total    224322999                       # number of WriteReq miss cycles
system.cpu0.dcache.LoadLockedReq_miss_latency::cpu0.data       171500                       # number of LoadLockedReq miss cycles
system.cpu0.dcache.LoadLockedReq_miss_latency::total       171500                       # number of LoadLockedReq miss cycles
system.cpu0.dcache.StoreCondReq_miss_latency::cpu0.data         7500                       # number of StoreCondReq miss cycles
system.cpu0.dcache.StoreCondReq_miss_latency::total         7500                       # number of StoreCondReq miss cycles
system.cpu0.dcache.demand_miss_latency::cpu0.data    234407986                       # number of demand (read+write) miss cycles
system.cpu0.dcache.demand_miss_latency::total    234407986                       # number of demand (read+write) miss cycles
system.cpu0.dcache.overall_miss_latency::cpu0.data    234407986                       # number of overall miss cycles
system.cpu0.dcache.overall_miss_latency::total    234407986                       # number of overall miss cycles
system.cpu0.dcache.ReadReq_accesses::cpu0.data     35795843                       # number of ReadReq accesses(hits+misses)
system.cpu0.dcache.ReadReq_accesses::total     35795843                       # number of ReadReq accesses(hits+misses)
system.cpu0.dcache.WriteReq_accesses::cpu0.data     35796734                       # number of WriteReq accesses(hits+misses)
system.cpu0.dcache.WriteReq_accesses::total     35796734                       # number of WriteReq accesses(hits+misses)
system.cpu0.dcache.LoadLockedReq_accesses::cpu0.data           32                       # number of LoadLockedReq accesses(hits+misses)
system.cpu0.dcache.LoadLockedReq_accesses::total           32                       # number of LoadLockedReq accesses(hits+misses)
system.cpu0.dcache.StoreCondReq_accesses::cpu0.data           29                       # number of StoreCondReq accesses(hits+misses)
system.cpu0.dcache.StoreCondReq_accesses::total           29                       # number of StoreCondReq accesses(hits+misses)
system.cpu0.dcache.demand_accesses::cpu0.data     71592577                       # number of demand (read+write) accesses
system.cpu0.dcache.demand_accesses::total     71592577                       # number of demand (read+write) accesses
system.cpu0.dcache.overall_accesses::cpu0.data     71592577                       # number of overall (read+write) accesses
system.cpu0.dcache.overall_accesses::total     71592577                       # number of overall (read+write) accesses
system.cpu0.dcache.ReadReq_miss_rate::cpu0.data     0.000007                       # miss rate for ReadReq accesses
system.cpu0.dcache.ReadReq_miss_rate::total     0.000007                       # miss rate for ReadReq accesses
system.cpu0.dcache.WriteReq_miss_rate::cpu0.data     0.000125                       # miss rate for WriteReq accesses
system.cpu0.dcache.WriteReq_miss_rate::total     0.000125                       # miss rate for WriteReq accesses
system.cpu0.dcache.LoadLockedReq_miss_rate::cpu0.data     0.156250                       # miss rate for LoadLockedReq accesses
system.cpu0.dcache.LoadLockedReq_miss_rate::total     0.156250                       # miss rate for LoadLockedReq accesses
system.cpu0.dcache.StoreCondReq_miss_rate::cpu0.data     0.034483                       # miss rate for StoreCondReq accesses
system.cpu0.dcache.StoreCondReq_miss_rate::total     0.034483                       # miss rate for StoreCondReq accesses
system.cpu0.dcache.demand_miss_rate::cpu0.data     0.000066                       # miss rate for demand accesses
system.cpu0.dcache.demand_miss_rate::total     0.000066                       # miss rate for demand accesses
system.cpu0.dcache.overall_miss_rate::cpu0.data     0.000066                       # miss rate for overall accesses
system.cpu0.dcache.overall_miss_rate::total     0.000066                       # miss rate for overall accesses
system.cpu0.dcache.ReadReq_avg_miss_latency::cpu0.data 38056.554717                       # average ReadReq miss latency
system.cpu0.dcache.ReadReq_avg_miss_latency::total 38056.554717                       # average ReadReq miss latency
system.cpu0.dcache.WriteReq_avg_miss_latency::cpu0.data 50005.126839                       # average WriteReq miss latency
system.cpu0.dcache.WriteReq_avg_miss_latency::total 50005.126839                       # average WriteReq miss latency
system.cpu0.dcache.LoadLockedReq_avg_miss_latency::cpu0.data        34300                       # average LoadLockedReq miss latency
system.cpu0.dcache.LoadLockedReq_avg_miss_latency::total        34300                       # average LoadLockedReq miss latency
system.cpu0.dcache.StoreCondReq_avg_miss_latency::cpu0.data         7500                       # average StoreCondReq miss latency
system.cpu0.dcache.StoreCondReq_avg_miss_latency::total         7500                       # average StoreCondReq miss latency
system.cpu0.dcache.demand_avg_miss_latency::cpu0.data 49338.662597                       # average overall miss latency
system.cpu0.dcache.demand_avg_miss_latency::total 49338.662597                       # average overall miss latency
system.cpu0.dcache.overall_avg_miss_latency::cpu0.data 49338.662597                       # average overall miss latency
system.cpu0.dcache.overall_avg_miss_latency::total 49338.662597                       # average overall miss latency
system.cpu0.dcache.blocked_cycles::no_mshrs           72                       # number of cycles access was blocked
system.cpu0.dcache.blocked_cycles::no_targets            0                       # number of cycles access was blocked
system.cpu0.dcache.blocked::no_mshrs                7                       # number of cycles access was blocked
system.cpu0.dcache.blocked::no_targets              0                       # number of cycles access was blocked
system.cpu0.dcache.avg_blocked_cycles::no_mshrs    10.285714                       # average number of cycles each access was blocked
system.cpu0.dcache.avg_blocked_cycles::no_targets          nan                       # average number of cycles each access was blocked
system.cpu0.dcache.fast_writes                      0                       # number of fast writes performed
system.cpu0.dcache.cache_copies                     0                       # number of cache copies performed
system.cpu0.dcache.writebacks::writebacks          528                       # number of writebacks
system.cpu0.dcache.writebacks::total              528                       # number of writebacks
system.cpu0.dcache.ReadReq_mshr_hits::cpu0.data           81                       # number of ReadReq MSHR hits
system.cpu0.dcache.ReadReq_mshr_hits::total           81                       # number of ReadReq MSHR hits
system.cpu0.dcache.WriteReq_mshr_hits::cpu0.data         3509                       # number of WriteReq MSHR hits
system.cpu0.dcache.WriteReq_mshr_hits::total         3509                       # number of WriteReq MSHR hits
system.cpu0.dcache.LoadLockedReq_mshr_hits::cpu0.data            5                       # number of LoadLockedReq MSHR hits
system.cpu0.dcache.LoadLockedReq_mshr_hits::total            5                       # number of LoadLockedReq MSHR hits
system.cpu0.dcache.demand_mshr_hits::cpu0.data         3590                       # number of demand (read+write) MSHR hits
system.cpu0.dcache.demand_mshr_hits::total         3590                       # number of demand (read+write) MSHR hits
system.cpu0.dcache.overall_mshr_hits::cpu0.data         3590                       # number of overall MSHR hits
system.cpu0.dcache.overall_mshr_hits::total         3590                       # number of overall MSHR hits
system.cpu0.dcache.ReadReq_mshr_misses::cpu0.data          184                       # number of ReadReq MSHR misses
system.cpu0.dcache.ReadReq_mshr_misses::total          184                       # number of ReadReq MSHR misses
system.cpu0.dcache.WriteReq_mshr_misses::cpu0.data          977                       # number of WriteReq MSHR misses
system.cpu0.dcache.WriteReq_mshr_misses::total          977                       # number of WriteReq MSHR misses
system.cpu0.dcache.StoreCondReq_mshr_misses::cpu0.data            1                       # number of StoreCondReq MSHR misses
system.cpu0.dcache.StoreCondReq_mshr_misses::total            1                       # number of StoreCondReq MSHR misses
system.cpu0.dcache.demand_mshr_misses::cpu0.data         1161                       # number of demand (read+write) MSHR misses
system.cpu0.dcache.demand_mshr_misses::total         1161                       # number of demand (read+write) MSHR misses
system.cpu0.dcache.overall_mshr_misses::cpu0.data         1161                       # number of overall MSHR misses
system.cpu0.dcache.overall_mshr_misses::total         1161                       # number of overall MSHR misses
system.cpu0.dcache.ReadReq_mshr_miss_latency::cpu0.data      6673009                       # number of ReadReq MSHR miss cycles
system.cpu0.dcache.ReadReq_mshr_miss_latency::total      6673009                       # number of ReadReq MSHR miss cycles
system.cpu0.dcache.WriteReq_mshr_miss_latency::cpu0.data     53268000                       # number of WriteReq MSHR miss cycles
system.cpu0.dcache.WriteReq_mshr_miss_latency::total     53268000                       # number of WriteReq MSHR miss cycles
system.cpu0.dcache.StoreCondReq_mshr_miss_latency::cpu0.data         4500                       # number of StoreCondReq MSHR miss cycles
system.cpu0.dcache.StoreCondReq_mshr_miss_latency::total         4500                       # number of StoreCondReq MSHR miss cycles
system.cpu0.dcache.demand_mshr_miss_latency::cpu0.data     59941009                       # number of demand (read+write) MSHR miss cycles
system.cpu0.dcache.demand_mshr_miss_latency::total     59941009                       # number of demand (read+write) MSHR miss cycles
system.cpu0.dcache.overall_mshr_miss_latency::cpu0.data     59941009                       # number of overall MSHR miss cycles
system.cpu0.dcache.overall_mshr_miss_latency::total     59941009                       # number of overall MSHR miss cycles
system.cpu0.dcache.ReadReq_mshr_miss_rate::cpu0.data     0.000005                       # mshr miss rate for ReadReq accesses
system.cpu0.dcache.ReadReq_mshr_miss_rate::total     0.000005                       # mshr miss rate for ReadReq accesses
system.cpu0.dcache.WriteReq_mshr_miss_rate::cpu0.data     0.000027                       # mshr miss rate for WriteReq accesses
system.cpu0.dcache.WriteReq_mshr_miss_rate::total     0.000027                       # mshr miss rate for WriteReq accesses
system.cpu0.dcache.StoreCondReq_mshr_miss_rate::cpu0.data     0.034483                       # mshr miss rate for StoreCondReq accesses
system.cpu0.dcache.StoreCondReq_mshr_miss_rate::total     0.034483                       # mshr miss rate for StoreCondReq accesses
system.cpu0.dcache.demand_mshr_miss_rate::cpu0.data     0.000016                       # mshr miss rate for demand accesses
system.cpu0.dcache.demand_mshr_miss_rate::total     0.000016                       # mshr miss rate for demand accesses
system.cpu0.dcache.overall_mshr_miss_rate::cpu0.data     0.000016                       # mshr miss rate for overall accesses
system.cpu0.dcache.overall_mshr_miss_rate::total     0.000016                       # mshr miss rate for overall accesses
system.cpu0.dcache.ReadReq_avg_mshr_miss_latency::cpu0.data 36266.353261                       # average ReadReq mshr miss latency
system.cpu0.dcache.ReadReq_avg_mshr_miss_latency::total 36266.353261                       # average ReadReq mshr miss latency
system.cpu0.dcache.WriteReq_avg_mshr_miss_latency::cpu0.data 54522.006141                       # average WriteReq mshr miss latency
system.cpu0.dcache.WriteReq_avg_mshr_miss_latency::total 54522.006141                       # average WriteReq mshr miss latency
system.cpu0.dcache.StoreCondReq_avg_mshr_miss_latency::cpu0.data         4500                       # average StoreCondReq mshr miss latency
system.cpu0.dcache.StoreCondReq_avg_mshr_miss_latency::total         4500                       # average StoreCondReq mshr miss latency
system.cpu0.dcache.demand_avg_mshr_miss_latency::cpu0.data 51628.776055                       # average overall mshr miss latency
system.cpu0.dcache.demand_avg_mshr_miss_latency::total 51628.776055                       # average overall mshr miss latency
system.cpu0.dcache.overall_avg_mshr_miss_latency::cpu0.data 51628.776055                       # average overall mshr miss latency
system.cpu0.dcache.overall_avg_mshr_miss_latency::total 51628.776055                       # average overall mshr miss latency
system.cpu0.dcache.no_allocate_misses               0                       # Number of misses that were no-allocate
system.cpu0.icache.tags.replacements               78                       # number of replacements
system.cpu0.icache.tags.tagsinuse          294.928531                       # Cycle average of tags in use
system.cpu0.icache.tags.total_refs               6944                       # Total number of references to valid blocks.
[...]
system.l2.demand_avg_mshr_miss_latency::cpu8.data 40523.138298                       # average overall mshr miss latency
system.l2.demand_avg_mshr_miss_latency::total 40535.387959                       # average overall mshr miss latency
system.l2.overall_avg_mshr_miss_latency::cpu0.inst 41043.296089                       # average overall mshr miss latency
system.l2.overall_avg_mshr_miss_latency::cpu0.data 40727.272727                       # average overall mshr miss latency
system.l2.overall_avg_mshr_miss_latency::cpu1.inst 40823.943662                       # average overall mshr miss latency
system.l2.overall_avg_mshr_miss_latency::cpu1.data 40536.021030                       # average overall mshr miss latency
system.l2.overall_avg_mshr_miss_latency::cpu2.inst 40782.894737                       # average overall mshr miss latency
system.l2.overall_avg_mshr_miss_latency::cpu2.data 40541.453802                       # average overall mshr miss latency
system.l2.overall_avg_mshr_miss_latency::cpu3.inst 40738.095238                       # average overall mshr miss latency
system.l2.overall_avg_mshr_miss_latency::cpu3.data 40534.459564                       # average overall mshr miss latency
system.l2.overall_avg_mshr_miss_latency::cpu4.inst 40894.495413                       # average overall mshr miss latency
system.l2.overall_avg_mshr_miss_latency::cpu4.data 40527.670476                       # average overall mshr miss latency
system.l2.overall_avg_mshr_miss_latency::cpu5.inst 41715.686275                       # average overall mshr miss latency
system.l2.overall_avg_mshr_miss_latency::cpu5.data 40536.623722                       # average overall mshr miss latency
system.l2.overall_avg_mshr_miss_latency::cpu6.inst 40904.761905                       # average overall mshr miss latency
system.l2.overall_avg_mshr_miss_latency::cpu6.data 40524.596507                       # average overall mshr miss latency
system.l2.overall_avg_mshr_miss_latency::cpu7.inst 41777.777778                       # average overall mshr miss latency
system.l2.overall_avg_mshr_miss_latency::cpu7.data 40525.449651                       # average overall mshr miss latency
system.l2.overall_avg_mshr_miss_latency::cpu8.inst 40602.941176                       # average overall mshr miss latency
system.l2.overall_avg_mshr_miss_latency::cpu8.data 40523.138298                       # average overall mshr miss latency
system.l2.overall_avg_mshr_miss_latency::total 40535.387959                       # average overall mshr miss latency
system.l2.no_allocate_misses                        0                       # Number of misses that were no-allocate
system.membus.trans_dist::ReadReq              144451                       # Transaction distribution
system.membus.trans_dist::ReadResp             144451                       # Transaction distribution
system.membus.trans_dist::Writeback             15316                       # Transaction distribution
system.membus.trans_dist::UpgradeReq           650009                       # Transaction distribution
system.membus.trans_dist::SCUpgradeReq         970736                       # Transaction distribution
system.membus.trans_dist::UpgradeResp          731570                       # Transaction distribution
system.membus.trans_dist::SCUpgradeFailReq         1283                       # Transaction distribution
system.membus.trans_dist::ReadExReq             28830                       # Transaction distribution
system.membus.trans_dist::ReadExResp             3841                       # Transaction distribution
system.membus.pkt_count_system.l2.mem_side::system.physmem.port      2690487                       # Packet count per connected master and slave (bytes)
system.membus.pkt_count::total                2690487                       # Packet count per connected master and slave (bytes)
system.membus.pkt_size_system.l2.mem_side::system.physmem.port     10470912                       # Cumulative packet size per connected master and slave (bytes)
system.membus.pkt_size::total                10470912                       # Cumulative packet size per connected master and slave (bytes)
system.membus.snoops                           915447                       # Total snoops (count)
system.membus.snoop_fanout::samples           1819531                       # Request fanout histogram
system.membus.snoop_fanout::mean                    0                       # Request fanout histogram
system.membus.snoop_fanout::stdev                   0                       # Request fanout histogram
system.membus.snoop_fanout::underflows              0      0.00%      0.00% # Request fanout histogram
system.membus.snoop_fanout::0                 1819531    100.00%    100.00% # Request fanout histogram
system.membus.snoop_fanout::1                       0      0.00%    100.00% # Request fanout histogram
system.membus.snoop_fanout::overflows               0      0.00%    100.00% # Request fanout histogram
system.membus.snoop_fanout::min_value               0                       # Request fanout histogram
system.membus.snoop_fanout::max_value               0                       # Request fanout histogram
system.membus.snoop_fanout::total             1819531                       # Request fanout histogram
system.membus.reqLayer0.occupancy          1340069849                       # Layer occupancy (ticks)
system.membus.reqLayer0.utilization               1.9                       # Layer utilization (%)
system.membus.respLayer1.occupancy         1832432583                       # Layer occupancy (ticks)
system.membus.respLayer1.utilization              2.6                       # Layer utilization (%)
system.tol2bus.trans_dist::ReadReq            8309031                       # Transaction distribution
system.tol2bus.trans_dist::ReadResp           8280354                       # Transaction distribution
system.tol2bus.trans_dist::ReadRespWithInvalidate        28677                       # Transaction distribution
system.tol2bus.trans_dist::Writeback           110085                       # Transaction distribution
system.tol2bus.trans_dist::UpgradeReq          650435                       # Transaction distribution
system.tol2bus.trans_dist::SCUpgradeReq        970769                       # Transaction distribution
system.tol2bus.trans_dist::UpgradeResp        1621204                       # Transaction distribution
system.tol2bus.trans_dist::SCUpgradeFailReq       291110                       # Transaction distribution
system.tol2bus.trans_dist::UpgradeFailResp       291110                       # Transaction distribution
system.tol2bus.trans_dist::ReadExReq           328488                       # Transaction distribution
system.tol2bus.trans_dist::ReadExResp          328488                       # Transaction distribution
system.tol2bus.pkt_count_system.cpu0.icache.mem_side::system.l2.cpu_side          802                       # Packet count per connected master and slave (bytes)
system.tol2bus.pkt_count_system.cpu0.dcache.mem_side::system.l2.cpu_side         2836                       # Packet count per connected master and slave (bytes)
system.tol2bus.pkt_count_system.cpu1.icache.mem_side::system.l2.cpu_side        11955                       # Packet count per connected master and slave (bytes)
system.tol2bus.pkt_count_system.cpu1.dcache.mem_side::system.l2.cpu_side      1453048                       # Packet count per connected master and slave (bytes)
system.tol2bus.pkt_count_system.cpu2.icache.mem_side::system.l2.cpu_side        10798                       # Packet count per connected master and slave (bytes)
system.tol2bus.pkt_count_system.cpu2.dcache.mem_side::system.l2.cpu_side      1543048                       # Packet count per connected master and slave (bytes)
system.tol2bus.pkt_count_system.cpu3.icache.mem_side::system.l2.cpu_side        11371                       # Packet count per connected master and slave (bytes)
system.tol2bus.pkt_count_system.cpu3.dcache.mem_side::system.l2.cpu_side      1487873                       # Packet count per connected master and slave (bytes)
system.tol2bus.pkt_count_system.cpu4.icache.mem_side::system.l2.cpu_side         9704                       # Packet count per connected master and slave (bytes)
system.tol2bus.pkt_count_system.cpu4.dcache.mem_side::system.l2.cpu_side      1500439                       # Packet count per connected master and slave (bytes)
system.tol2bus.pkt_count_system.cpu5.icache.mem_side::system.l2.cpu_side        13796                       # Packet count per connected master and slave (bytes)
system.tol2bus.pkt_count_system.cpu5.dcache.mem_side::system.l2.cpu_side      1520897                       # Packet count per connected master and slave (bytes)
system.tol2bus.pkt_count_system.cpu6.icache.mem_side::system.l2.cpu_side         8978                       # Packet count per connected master and slave (bytes)
system.tol2bus.pkt_count_system.cpu6.dcache.mem_side::system.l2.cpu_side      1559091                       # Packet count per connected master and slave (bytes)
system.tol2bus.pkt_count_system.cpu7.icache.mem_side::system.l2.cpu_side         9645                       # Packet count per connected master and slave (bytes)
system.tol2bus.pkt_count_system.cpu7.dcache.mem_side::system.l2.cpu_side      1526298                       # Packet count per connected master and slave (bytes)
system.tol2bus.pkt_count_system.cpu8.icache.mem_side::system.l2.cpu_side         8504                       # Packet count per connected master and slave (bytes)
system.tol2bus.pkt_count_system.cpu8.dcache.mem_side::system.l2.cpu_side      1222970                       # Packet count per connected master and slave (bytes)
system.tol2bus.pkt_count::total              11902053                       # Packet count per connected master and slave (bytes)
system.tol2bus.pkt_size_system.cpu0.icache.mem_side::system.l2.cpu_side        25664                       # Cumulative packet size per connected master and slave (bytes)
system.tol2bus.pkt_size_system.cpu0.dcache.mem_side::system.l2.cpu_side       107008                       # Cumulative packet size per connected master and slave (bytes)
system.tol2bus.pkt_size_system.cpu1.icache.mem_side::system.l2.cpu_side       382528                       # Cumulative packet size per connected master and slave (bytes)
system.tol2bus.pkt_size_system.cpu1.dcache.mem_side::system.l2.cpu_side      4391616                       # Cumulative packet size per connected master and slave (bytes)
system.tol2bus.pkt_size_system.cpu2.icache.mem_side::system.l2.cpu_side       345536                       # Cumulative packet size per connected master and slave (bytes)
system.tol2bus.pkt_size_system.cpu2.dcache.mem_side::system.l2.cpu_side      4705088                       # Cumulative packet size per connected master and slave (bytes)
system.tol2bus.pkt_size_system.cpu3.icache.mem_side::system.l2.cpu_side       363840                       # Cumulative packet size per connected master and slave (bytes)
system.tol2bus.pkt_size_system.cpu3.dcache.mem_side::system.l2.cpu_side      4315904                       # Cumulative packet size per connected master and slave (bytes)
system.tol2bus.pkt_size_system.cpu4.icache.mem_side::system.l2.cpu_side       310528                       # Cumulative packet size per connected master and slave (bytes)
system.tol2bus.pkt_size_system.cpu4.dcache.mem_side::system.l2.cpu_side      4277696                       # Cumulative packet size per connected master and slave (bytes)
system.tol2bus.pkt_size_system.cpu5.icache.mem_side::system.l2.cpu_side       441472                       # Cumulative packet size per connected master and slave (bytes)
system.tol2bus.pkt_size_system.cpu5.dcache.mem_side::system.l2.cpu_side      4799296                       # Cumulative packet size per connected master and slave (bytes)
system.tol2bus.pkt_size_system.cpu6.icache.mem_side::system.l2.cpu_side       287296                       # Cumulative packet size per connected master and slave (bytes)
system.tol2bus.pkt_size_system.cpu6.dcache.mem_side::system.l2.cpu_side      5020736                       # Cumulative packet size per connected master and slave (bytes)
system.tol2bus.pkt_size_system.cpu7.icache.mem_side::system.l2.cpu_side       308608                       # Cumulative packet size per connected master and slave (bytes)
system.tol2bus.pkt_size_system.cpu7.dcache.mem_side::system.l2.cpu_side      4595072                       # Cumulative packet size per connected master and slave (bytes)
system.tol2bus.pkt_size_system.cpu8.icache.mem_side::system.l2.cpu_side       272128                       # Cumulative packet size per connected master and slave (bytes)
system.tol2bus.pkt_size_system.cpu8.dcache.mem_side::system.l2.cpu_side      4742208                       # Cumulative packet size per connected master and slave (bytes)
system.tol2bus.pkt_size::total               39692224                       # Cumulative packet size per connected master and slave (bytes)
system.tol2bus.snoops                         9307698                       # Total snoops (count)
system.tol2bus.snoop_fanout::samples         10659920                       # Request fanout histogram
system.tol2bus.snoop_fanout::mean                  17                       # Request fanout histogram
system.tol2bus.snoop_fanout::stdev                  0                       # Request fanout histogram
system.tol2bus.snoop_fanout::underflows             0      0.00%      0.00% # Request fanout histogram
system.tol2bus.snoop_fanout::0                      0      0.00%      0.00% # Request fanout histogram
system.tol2bus.snoop_fanout::1                      0      0.00%      0.00% # Request fanout histogram
system.tol2bus.snoop_fanout::2                      0      0.00%      0.00% # Request fanout histogram
system.tol2bus.snoop_fanout::3                      0      0.00%      0.00% # Request fanout histogram
system.tol2bus.snoop_fanout::4                      0      0.00%      0.00% # Request fanout histogram
system.tol2bus.snoop_fanout::5                      0      0.00%      0.00% # Request fanout histogram
system.tol2bus.snoop_fanout::6                      0      0.00%      0.00% # Request fanout histogram
system.tol2bus.snoop_fanout::7                      0      0.00%      0.00% # Request fanout histogram
system.tol2bus.snoop_fanout::8                      0      0.00%      0.00% # Request fanout histogram
system.tol2bus.snoop_fanout::9                      0      0.00%      0.00% # Request fanout histogram
system.tol2bus.snoop_fanout::10                     0      0.00%      0.00% # Request fanout histogram
system.tol2bus.snoop_fanout::11                     0      0.00%      0.00% # Request fanout histogram
system.tol2bus.snoop_fanout::12                     0      0.00%      0.00% # Request fanout histogram
system.tol2bus.snoop_fanout::13                     0      0.00%      0.00% # Request fanout histogram
system.tol2bus.snoop_fanout::14                     0      0.00%      0.00% # Request fanout histogram
system.tol2bus.snoop_fanout::15                     0      0.00%      0.00% # Request fanout histogram
system.tol2bus.snoop_fanout::16                     0      0.00%      0.00% # Request fanout histogram
system.tol2bus.snoop_fanout::17              10659920    100.00%    100.00% # Request fanout histogram
system.tol2bus.snoop_fanout::18                     0      0.00%    100.00% # Request fanout histogram
system.tol2bus.snoop_fanout::overflows              0      0.00%    100.00% # Request fanout histogram
system.tol2bus.snoop_fanout::min_value             17                       # Request fanout histogram
system.tol2bus.snoop_fanout::max_value             17                       # Request fanout histogram
system.tol2bus.snoop_fanout::total           10659920                       # Request fanout histogram
system.tol2bus.reqLayer0.occupancy         5534613291                       # Layer occupancy (ticks)
system.tol2bus.reqLayer0.utilization              7.7                       # Layer utilization (%)
system.tol2bus.respLayer0.occupancy            601999                       # Layer occupancy (ticks)
system.tol2bus.respLayer0.utilization             0.0                       # Layer utilization (%)
system.tol2bus.respLayer1.occupancy           1741491                       # Layer occupancy (ticks)
system.tol2bus.respLayer1.utilization             0.0                       # Layer utilization (%)
system.tol2bus.respLayer4.occupancy           9000895                       # Layer occupancy (ticks)
system.tol2bus.respLayer4.utilization             0.0                       # Layer utilization (%)
system.tol2bus.respLayer5.occupancy        1977358984                       # Layer occupancy (ticks)
system.tol2bus.respLayer5.utilization             2.8                       # Layer utilization (%)
system.tol2bus.respLayer8.occupancy           8137852                       # Layer occupancy (ticks)
system.tol2bus.respLayer8.utilization             0.0                       # Layer utilization (%)
system.tol2bus.respLayer9.occupancy        2125939049                       # Layer occupancy (ticks)
system.tol2bus.respLayer9.utilization             3.0                       # Layer utilization (%)
system.tol2bus.respLayer12.occupancy          8559879                       # Layer occupancy (ticks)
system.tol2bus.respLayer12.utilization            0.0                       # Layer utilization (%)
system.tol2bus.respLayer13.occupancy       2047459661                       # Layer occupancy (ticks)
system.tol2bus.respLayer13.utilization            2.9                       # Layer utilization (%)
system.tol2bus.respLayer16.occupancy          7294937                       # Layer occupancy (ticks)
system.tol2bus.respLayer16.utilization            0.0                       # Layer utilization (%)
system.tol2bus.respLayer17.occupancy       2072029420                       # Layer occupancy (ticks)
system.tol2bus.respLayer17.utilization            2.9                       # Layer utilization (%)
system.tol2bus.respLayer20.occupancy         10350979                       # Layer occupancy (ticks)
system.tol2bus.respLayer20.utilization            0.0                       # Layer utilization (%)
system.tol2bus.respLayer21.occupancy       2051938118                       # Layer occupancy (ticks)
system.tol2bus.respLayer21.utilization            2.9                       # Layer utilization (%)
system.tol2bus.respLayer24.occupancy          6742481                       # Layer occupancy (ticks)
system.tol2bus.respLayer24.utilization            0.0                       # Layer utilization (%)
system.tol2bus.respLayer25.occupancy       2131817304                       # Layer occupancy (ticks)
system.tol2bus.respLayer25.utilization            3.0                       # Layer utilization (%)
system.tol2bus.respLayer28.occupancy          7241474                       # Layer occupancy (ticks)
system.tol2bus.respLayer28.utilization            0.0                       # Layer utilization (%)
system.tol2bus.respLayer29.occupancy       2093083419                       # Layer occupancy (ticks)
system.tol2bus.respLayer29.utilization            2.9                       # Layer utilization (%)
system.tol2bus.respLayer32.occupancy          6382987                       # Layer occupancy (ticks)
system.tol2bus.respLayer32.utilization            0.0                       # Layer utilization (%)
system.tol2bus.respLayer33.occupancy       1576376025                       # Layer occupancy (ticks)
system.tol2bus.respLayer33.utilization            2.2                       # Layer utilization (%)

---------- End Simulation Statistics   ----------
