
---------- Begin Simulation Statistics ----------
sim_seconds                                  0.068285                       # Number of seconds simulated
sim_ticks                                 68285222000                       # Number of ticks simulated
final_tick                                68285222000                       # Number of ticks from beginning of simulation (restored from checkpoints and never reset)
sim_freq                                 1000000000000                       # Frequency of simulated ticks
host_inst_rate                                 156977                       # Simulator instruction rate (inst/s)
host_op_rate                                   162689                       # Simulator op (including micro ops) rate (op/s)
host_tick_rate                               37464493                       # Simulator tick rate (ticks/s)
host_mem_usage                                 702204                       # Number of bytes of host memory used
host_seconds                                  1822.67                       # Real time elapsed on the host
sim_insts                                   286116130                       # Number of instructions simulated
sim_ops                                     296528310                       # Number of ops (including micro ops) simulated
system.voltage_domain.voltage                       1                       # Voltage in Volts
system.clk_domain.clock                          1000                       # Clock period in ticks
system.physmem.bytes_read::cpu0.inst            22720                       # Number of bytes read from this memory
system.physmem.bytes_read::cpu0.data            66944                       # Number of bytes read from this memory
system.physmem.bytes_read::cpu1.inst             2112                       # Number of bytes read from this memory
system.physmem.bytes_read::cpu1.data          3779200                       # Number of bytes read from this memory
system.physmem.bytes_read::cpu2.inst             7488                       # Number of bytes read from this memory
system.physmem.bytes_read::cpu2.data          3789952                       # Number of bytes read from this memory
system.physmem.bytes_read::cpu3.inst             6592                       # Number of bytes read from this memory
system.physmem.bytes_read::cpu3.data          4167616                       # Number of bytes read from this memory
system.physmem.bytes_read::cpu4.inst             6016                       # Number of bytes read from this memory
system.physmem.bytes_read::cpu4.data          3835200                       # Number of bytes read from this memory
system.physmem.bytes_read::total             15683840                       # Number of bytes read from this memory
system.physmem.bytes_inst_read::cpu0.inst        22720                       # Number of instructions bytes read from this memory
system.physmem.bytes_inst_read::cpu1.inst         2112                       # Number of instructions bytes read from this memory
system.physmem.bytes_inst_read::cpu2.inst         7488                       # Number of instructions bytes read from this memory
system.physmem.bytes_inst_read::cpu3.inst         6592                       # Number of instructions bytes read from this memory
system.physmem.bytes_inst_read::cpu4.inst         6016                       # Number of instructions bytes read from this memory
system.physmem.bytes_inst_read::total           44928                       # Number of instructions bytes read from this memory
system.physmem.bytes_written::writebacks       177408                       # Number of bytes written to this memory
system.physmem.bytes_written::total            177408                       # Number of bytes written to this memory
system.physmem.num_reads::cpu0.inst               355                       # Number of read requests responded to by this memory
system.physmem.num_reads::cpu0.data              1046                       # Number of read requests responded to by this memory
system.physmem.num_reads::cpu1.inst                33                       # Number of read requests responded to by this memory
system.physmem.num_reads::cpu1.data             59050                       # Number of read requests responded to by this memory
system.physmem.num_reads::cpu2.inst               117                       # Number of read requests responded to by this memory
system.physmem.num_reads::cpu2.data             59218                       # Number of read requests responded to by this memory
system.physmem.num_reads::cpu3.inst               103                       # Number of read requests responded to by this memory
system.physmem.num_reads::cpu3.data             65119                       # Number of read requests responded to by this memory
system.physmem.num_reads::cpu4.inst                94                       # Number of read requests responded to by this memory
system.physmem.num_reads::cpu4.data             59925                       # Number of read requests responded to by this memory
system.physmem.num_reads::total                245060                       # Number of read requests responded to by this memory
system.physmem.num_writes::writebacks            2772                       # Number of write requests responded to by this memory
system.physmem.num_writes::total                 2772                       # Number of write requests responded to by this memory
system.physmem.bw_read::cpu0.inst              332722                       # Total read bandwidth from this memory (bytes/s)
system.physmem.bw_read::cpu0.data              980359                       # Total read bandwidth from this memory (bytes/s)
system.physmem.bw_read::cpu1.inst               30929                       # Total read bandwidth from this memory (bytes/s)
system.physmem.bw_read::cpu1.data            55344332                       # Total read bandwidth from this memory (bytes/s)
system.physmem.bw_read::cpu2.inst              109658                       # Total read bandwidth from this memory (bytes/s)
system.physmem.bw_read::cpu2.data            55501789                       # Total read bandwidth from this memory (bytes/s)
system.physmem.bw_read::cpu3.inst               96536                       # Total read bandwidth from this memory (bytes/s)
system.physmem.bw_read::cpu3.data            61032473                       # Total read bandwidth from this memory (bytes/s)
system.physmem.bw_read::cpu4.inst               88101                       # Total read bandwidth from this memory (bytes/s)
system.physmem.bw_read::cpu4.data            56164422                       # Total read bandwidth from this memory (bytes/s)
system.physmem.bw_read::total               229681321                       # Total read bandwidth from this memory (bytes/s)
system.physmem.bw_inst_read::cpu0.inst         332722                       # Instruction read bandwidth from this memory (bytes/s)
system.physmem.bw_inst_read::cpu1.inst          30929                       # Instruction read bandwidth from this memory (bytes/s)
system.physmem.bw_inst_read::cpu2.inst         109658                       # Instruction read bandwidth from this memory (bytes/s)
system.physmem.bw_inst_read::cpu3.inst          96536                       # Instruction read bandwidth from this memory (bytes/s)
system.physmem.bw_inst_read::cpu4.inst          88101                       # Instruction read bandwidth from this memory (bytes/s)
system.physmem.bw_inst_read::total             657946                       # Instruction read bandwidth from this memory (bytes/s)
system.physmem.bw_write::writebacks           2598044                       # Write bandwidth from this memory (bytes/s)
system.physmem.bw_write::total                2598044                       # Write bandwidth from this memory (bytes/s)
system.physmem.bw_total::writebacks           2598044                       # Total bandwidth to/from this memory (bytes/s)
system.physmem.bw_total::cpu0.inst             332722                       # Total bandwidth to/from this memory (bytes/s)
system.physmem.bw_total::cpu0.data             980359                       # Total bandwidth to/from this memory (bytes/s)
system.physmem.bw_total::cpu1.inst              30929                       # Total bandwidth to/from this memory (bytes/s)
system.physmem.bw_total::cpu1.data           55344332                       # Total bandwidth to/from this memory (bytes/s)
system.physmem.bw_total::cpu2.inst             109658                       # Total bandwidth to/from this memory (bytes/s)
system.physmem.bw_total::cpu2.data           55501789                       # Total bandwidth to/from this memory (bytes/s)
system.physmem.bw_total::cpu3.inst              96536                       # Total bandwidth to/from this memory (bytes/s)
system.physmem.bw_total::cpu3.data           61032473                       # Total bandwidth to/from this memory (bytes/s)
system.physmem.bw_total::cpu4.inst              88101                       # Total bandwidth to/from this memory (bytes/s)
system.physmem.bw_total::cpu4.data           56164422                       # Total bandwidth to/from this memory (bytes/s)
system.physmem.bw_total::total              232279365                       # Total bandwidth to/from this memory (bytes/s)
system.cpu0.branchPred.lookups               34131275                       # Number of BP lookups
system.cpu0.branchPred.condPredicted         34126203                       # Number of conditional branches predicted
system.cpu0.branchPred.condIncorrect              602                       # Number of conditional branches incorrect
system.cpu0.branchPred.BTBLookups            34125438                       # Number of BTB lookups
system.cpu0.branchPred.BTBHits               34125021                       # Number of BTB hits
system.cpu0.branchPred.BTBCorrect                   0                       # Number of correct BTB predictions (this stat may not work properly.
system.cpu0.branchPred.BTBHitPct            99.998778                       # BTB Hit Percentage
system.cpu0.branchPred.usedRAS                   2359                       # Number of times the RAS was used to get a target.
system.cpu0.branchPred.RASInCorrect                62                       # Number of incorrect RAS predictions.
system.cpu0.dstage2_mmu.stage2_tlb.walker.walks            0                       # Table walker walks requested
system.cpu0.dstage2_mmu.stage2_tlb.walker.walkRequestOrigin_Requested::Data            0                       # Table walker requests started/completed, data/inst
system.cpu0.dstage2_mmu.stage2_tlb.walker.walkRequestOrigin_Requested::Inst            0                       # Table walker requests started/completed, data/inst
system.cpu0.dstage2_mmu.stage2_tlb.walker.walkRequestOrigin_Requested::total            0                       # Table walker requests started/completed, data/inst
system.cpu0.dstage2_mmu.stage2_tlb.walker.walkRequestOrigin_Completed::Data            0                       # Table walker requests started/completed, data/inst
system.cpu0.dstage2_mmu.stage2_tlb.walker.walkRequestOrigin_Completed::Inst            0                       # Table walker requests started/completed, data/inst
system.cpu0.dstage2_mmu.stage2_tlb.walker.walkRequestOrigin_Completed::total            0                       # Table walker requests started/completed, data/inst
system.cpu0.dstage2_mmu.stage2_tlb.walker.walkRequestOrigin::total            0                       # Table walker requests started/completed, data/inst
system.cpu0.dstage2_mmu.stage2_tlb.inst_hits            0                       # ITB inst hits
system.cpu0.dstage2_mmu.stage2_tlb.inst_misses            0                       # ITB inst misses
system.cpu0.dstage2_mmu.stage2_tlb.read_hits            0                       # DTB read hits
system.cpu0.dstage2_mmu.stage2_tlb.read_misses            0                       # DTB read misses
system.cpu0.dstage2_mmu.stage2_tlb.write_hits            0                       # DTB write hits
system.cpu0.dstage2_mmu.stage2_tlb.write_misses            0                       # DTB write misses
system.cpu0.dstage2_mmu.stage2_tlb.flush_tlb            0                       # Number of times complete TLB was flushed
system.cpu0.dstage2_mmu.stage2_tlb.flush_tlb_mva            0                       # Number of times TLB was flushed by MVA
system.cpu0.dstage2_mmu.stage2_tlb.flush_tlb_mva_asid            0                       # Number of times TLB was flushed by MVA & ASID
system.cpu0.dstage2_mmu.stage2_tlb.flush_tlb_asid            0                       # Number of times TLB was flushed by ASID
system.cpu0.dstage2_mmu.stage2_tlb.flush_entries            0                       # Number of entries that have been flushed from TLB
system.cpu0.dstage2_mmu.stage2_tlb.align_faults            0                       # Number of TLB faults due to alignment restrictions
system.cpu0.dstage2_mmu.stage2_tlb.prefetch_faults            0                       # Number of TLB faults due to prefetch
system.cpu0.dstage2_mmu.stage2_tlb.domain_faults            0                       # Number of TLB faults due to domain restrictions
system.cpu0.dstage2_mmu.stage2_tlb.perms_faults            0                       # Number of TLB faults due to permissions restrictions
system.cpu0.dstage2_mmu.stage2_tlb.read_accesses            0                       # DTB read accesses
system.cpu0.dstage2_mmu.stage2_tlb.write_accesses            0                       # DTB write accesses
system.cpu0.dstage2_mmu.stage2_tlb.inst_accesses            0                       # ITB inst accesses
system.cpu0.dstage2_mmu.stage2_tlb.hits             0                       # DTB hits
system.cpu0.dstage2_mmu.stage2_tlb.misses            0                       # DTB misses
system.cpu0.dstage2_mmu.stage2_tlb.accesses            0                       # DTB accesses
system.cpu0.dtb.walker.walks                        0                       # Table walker walks requested
system.cpu0.dtb.walker.walkRequestOrigin_Requested::Data            0                       # Table walker requests started/completed, data/inst
system.cpu0.dtb.walker.walkRequestOrigin_Requested::Inst            0                       # Table walker requests started/completed, data/inst
system.cpu0.dtb.walker.walkRequestOrigin_Requested::total            0                       # Table walker requests started/completed, data/inst
system.cpu0.dtb.walker.walkRequestOrigin_Completed::Data            0                       # Table walker requests started/completed, data/inst
system.cpu0.dtb.walker.walkRequestOrigin_Completed::Inst            0                       # Table walker requests started/completed, data/inst
system.cpu0.dtb.walker.walkRequestOrigin_Completed::total            0                       # Table walker requests started/completed, data/inst
system.cpu0.dtb.walker.walkRequestOrigin::total            0                       # Table walker requests started/completed, data/inst
system.cpu0.dtb.inst_hits                           0                       # ITB inst hits
system.cpu0.dtb.inst_misses                         0                       # ITB inst misses
system.cpu0.dtb.read_hits                           0                       # DTB read hits
system.cpu0.dtb.read_misses                         0                       # DTB read misses
system.cpu0.dtb.write_hits                          0                       # DTB write hits
system.cpu0.dtb.write_misses                        0                       # DTB write misses
system.cpu0.dtb.flush_tlb                           0                       # Number of times complete TLB was flushed
system.cpu0.dtb.flush_tlb_mva                       0                       # Number of times TLB was flushed by MVA
system.cpu0.dtb.flush_tlb_mva_asid                  0                       # Number of times TLB was flushed by MVA & ASID
system.cpu0.dtb.flush_tlb_asid                      0                       # Number of times TLB was flushed by ASID
system.cpu0.dtb.flush_entries                       0                       # Number of entries that have been flushed from TLB
system.cpu0.dtb.align_faults                        0                       # Number of TLB faults due to alignment restrictions
system.cpu0.dtb.prefetch_faults                     0                       # Number of TLB faults due to prefetch
system.cpu0.dtb.domain_faults                       0                       # Number of TLB faults due to domain restrictions
system.cpu0.dtb.perms_faults                        0                       # Number of TLB faults due to permissions restrictions
system.cpu0.dtb.read_accesses                       0                       # DTB read accesses
system.cpu0.dtb.write_accesses                      0                       # DTB write accesses
system.cpu0.dtb.inst_accesses                       0                       # ITB inst accesses
system.cpu0.dtb.hits                                0                       # DTB hits
system.cpu0.dtb.misses                              0                       # DTB misses
system.cpu0.dtb.accesses                            0                       # DTB accesses
system.cpu0.istage2_mmu.stage2_tlb.walker.walks            0                       # Table walker walks requested
system.cpu0.istage2_mmu.stage2_tlb.walker.walkRequestOrigin_Requested::Data            0                       # Table walker requests started/completed, data/inst
system.cpu0.istage2_mmu.stage2_tlb.walker.walkRequestOrigin_Requested::Inst            0                       # Table walker requests started/completed, data/inst
system.cpu0.istage2_mmu.stage2_tlb.walker.walkRequestOrigin_Requested::total            0                       # Table walker requests started/completed, data/inst
system.cpu0.istage2_mmu.stage2_tlb.walker.walkRequestOrigin_Completed::Data            0                       # Table walker requests started/completed, data/inst
system.cpu0.istage2_mmu.stage2_tlb.walker.walkRequestOrigin_Completed::Inst            0                       # Table walker requests started/completed, data/inst
system.cpu0.istage2_mmu.stage2_tlb.walker.walkRequestOrigin_Completed::total            0                       # Table walker requests started/completed, data/inst
system.cpu0.istage2_mmu.stage2_tlb.walker.walkRequestOrigin::total            0                       # Table walker requests started/completed, data/inst
system.cpu0.istage2_mmu.stage2_tlb.inst_hits            0                       # ITB inst hits
system.cpu0.istage2_mmu.stage2_tlb.inst_misses            0                       # ITB inst misses
system.cpu0.istage2_mmu.stage2_tlb.read_hits            0                       # DTB read hits
system.cpu0.istage2_mmu.stage2_tlb.read_misses            0                       # DTB read misses
system.cpu0.istage2_mmu.stage2_tlb.write_hits            0                       # DTB write hits
system.cpu0.istage2_mmu.stage2_tlb.write_misses            0                       # DTB write misses
system.cpu0.istage2_mmu.stage2_tlb.flush_tlb            0                       # Number of times complete TLB was flushed
system.cpu0.istage2_mmu.stage2_tlb.flush_tlb_mva            0                       # Number of times TLB was flushed by MVA
system.cpu0.istage2_mmu.stage2_tlb.flush_tlb_mva_asid            0                       # Number of times TLB was flushed by MVA & ASID
system.cpu0.istage2_mmu.stage2_tlb.flush_tlb_asid            0                       # Number of times TLB was flushed by ASID
system.cpu0.istage2_mmu.stage2_tlb.flush_entries            0                       # Number of entries that have been flushed from TLB
system.cpu0.istage2_mmu.stage2_tlb.align_faults            0                       # Number of TLB faults due to alignment restrictions
system.cpu0.istage2_mmu.stage2_tlb.prefetch_faults            0                       # Number of TLB faults due to prefetch
system.cpu0.istage2_mmu.stage2_tlb.domain_faults            0                       # Number of TLB faults due to domain restrictions
system.cpu0.istage2_mmu.stage2_tlb.perms_faults            0                       # Number of TLB faults due to permissions restrictions
system.cpu0.istage2_mmu.stage2_tlb.read_accesses            0                       # DTB read accesses
system.cpu0.istage2_mmu.stage2_tlb.write_accesses            0                       # DTB write accesses
system.cpu0.istage2_mmu.stage2_tlb.inst_accesses            0                       # ITB inst accesses
system.cpu0.istage2_mmu.stage2_tlb.hits             0                       # DTB hits
system.cpu0.istage2_mmu.stage2_tlb.misses            0                       # DTB misses
system.cpu0.istage2_mmu.stage2_tlb.accesses            0                       # DTB accesses
system.cpu0.itb.walker.walks                        0                       # Table walker walks requested
system.cpu0.itb.walker.walkRequestOrigin_Requested::Data            0                       # Table walker requests started/completed, data/inst
system.cpu0.itb.walker.walkRequestOrigin_Requested::Inst            0                       # Table walker requests started/completed, data/inst
system.cpu0.itb.walker.walkRequestOrigin_Requested::total            0                       # Table walker requests started/completed, data/inst
system.cpu0.itb.walker.walkRequestOrigin_Completed::Data            0                       # Table walker requests started/completed, data/inst
system.cpu0.itb.walker.walkRequestOrigin_Completed::Inst            0                       # Table walker requests started/completed, data/inst
system.cpu0.itb.walker.walkRequestOrigin_Completed::total            0                       # Table walker requests started/completed, data/inst
system.cpu0.itb.walker.walkRequestOrigin::total            0                       # Table walker requests started/completed, data/inst
system.cpu0.itb.inst_hits                           0                       # ITB inst hits
system.cpu0.itb.inst_misses                         0                       # ITB inst misses
system.cpu0.itb.read_hits                           0                       # DTB read hits
system.cpu0.itb.read_misses                         0                       # DTB read misses
system.cpu0.itb.write_hits                          0                       # DTB write hits
system.cpu0.itb.write_misses                        0                       # DTB write misses
system.cpu0.itb.flush_tlb                           0                       # Number of times complete TLB was flushed
system.cpu0.itb.flush_tlb_mva                       0                       # Number of times TLB was flushed by MVA
system.cpu0.itb.flush_tlb_mva_asid                  0                       # Number of times TLB was flushed by MVA & ASID
system.cpu0.itb.flush_tlb_asid                      0                       # Number of times TLB was flushed by ASID
system.cpu0.itb.flush_entries                       0                       # Number of entries that have been flushed from TLB
system.cpu0.itb.align_faults                        0                       # Number of TLB faults due to alignment restrictions
system.cpu0.itb.prefetch_faults                     0                       # Number of TLB faults due to prefetch
system.cpu0.itb.domain_faults                       0                       # Number of TLB faults due to domain restrictions
system.cpu0.itb.perms_faults                        0                       # Number of TLB faults due to permissions restrictions
system.cpu0.itb.read_accesses                       0                       # DTB read accesses
system.cpu0.itb.write_accesses                      0                       # DTB write accesses
system.cpu0.itb.inst_accesses                       0                       # ITB inst accesses
system.cpu0.itb.hits                                0                       # DTB hits
system.cpu0.itb.misses                              0                       # DTB misses
system.cpu0.itb.accesses                            0                       # DTB accesses
system.cpu0.workload.num_syscalls              448209                       # Number of system calls
system.cpu0.numCycles                        68285223                       # number of cpu cycles simulated
system.cpu0.numWorkItemsStarted                     0                       # number of work items this cpu started
system.cpu0.numWorkItemsCompleted                   0                       # number of work items this cpu completed
system.cpu0.fetch.icacheStallCycles             13465                       # Number of cycles fetch is stalled on an Icache miss
system.cpu0.fetch.Insts                     170646814                       # Number of instructions fetch has processed
system.cpu0.fetch.Branches                   34131275                       # Number of branches that fetch encountered
system.cpu0.fetch.predictedBranches          34127380                       # Number of branches that fetch has predicted taken
system.cpu0.fetch.Cycles                     68262925                       # Number of cycles fetch has run and was not squashing or blocked
system.cpu0.fetch.SquashCycles                   1531                       # Number of cycles fetch has spent squashing
system.cpu0.fetch.PendingTrapStallCycles          154                       # Number of stall cycles due to pending traps
system.cpu0.fetch.CacheLines                     6780                       # Number of cache lines fetched
system.cpu0.fetch.IcacheSquashes                  261                       # Number of outstanding Icache misses that were squashed
system.cpu0.fetch.rateDist::samples          68277309                       # Number of instructions fetched each cycle (Total)
system.cpu0.fetch.rateDist::mean             2.499385                       # Number of instructions fetched each cycle (Total)
system.cpu0.fetch.rateDist::stdev            0.501609                       # Number of instructions fetched each cycle (Total)
system.cpu0.fetch.rateDist::underflows              0      0.00%      0.00% # Number of instructions fetched each cycle (Total)
system.cpu0.fetch.rateDist::0                   17395      0.03%      0.03% # Number of instructions fetched each cycle (Total)
system.cpu0.fetch.rateDist::1                    2851      0.00%      0.03% # Number of instructions fetched each cycle (Total)
system.cpu0.fetch.rateDist::2                34122777     49.98%     50.01% # Number of instructions fetched each cycle (Total)
system.cpu0.fetch.rateDist::3                34134286     49.99%    100.00% # Number of instructions fetched each cycle (Total)
system.cpu0.fetch.rateDist::overflows               0      0.00%    100.00% # Number of instructions fetched each cycle (Total)
system.cpu0.fetch.rateDist::min_value               0                       # Number of instructions fetched each cycle (Total)
system.cpu0.fetch.rateDist::max_value               3                       # Number of instructions fetched each cycle (Total)
system.cpu0.fetch.rateDist::total            68277309                       # Number of instructions fetched each cycle (Total)
system.cpu0.fetch.branchRate                 0.499834                       # Number of branch fetches per cycle
system.cpu0.fetch.rate                       2.499030                       # Number of inst fetches per cycle
system.cpu0.decode.IdleCycles                   12478                       # Number of cycles decode is idle
system.cpu0.decode.BlockedCycles                 5706                       # Number of cycles decode is blocked
system.cpu0.decode.RunCycles                 68257719                       # Number of cycles decode is running
system.cpu0.decode.UnblockCycles                  841                       # Number of cycles decode is unblocking
system.cpu0.decode.SquashCycles                   565                       # Number of cycles decode is squashing
system.cpu0.decode.BranchResolved                2440                       # Number of times decode resolved a branch
system.cpu0.decode.BranchMispred                  206                       # Number of times decode detected a branch misprediction
system.cpu0.decode.DecodedInsts             170648380                       # Number of instructions handled by decode
system.cpu0.decode.SquashedInsts                  450                       # Number of squashed instructions handled by decode
system.cpu0.rename.SquashCycles                   565                       # Number of cycles rename is squashing
system.cpu0.rename.IdleCycles                   13168                       # Number of cycles rename is idle
system.cpu0.rename.BlockCycles                    675                       # Number of cycles rename is blocking
system.cpu0.rename.serializeStallCycles          2299                       # count of cycles rename stalled for serializing inst
system.cpu0.rename.RunCycles                 68257761                       # Number of cycles rename is running
system.cpu0.rename.UnblockCycles                 2841                       # Number of cycles rename is unblocking
system.cpu0.rename.RenamedInsts             170647323                       # Number of instructions processed by rename
system.cpu0.rename.IQFullEvents                    15                       # Number of times rename has blocked due to IQ full
system.cpu0.rename.LQFullEvents                     9                       # Number of times rename has blocked due to LQ full
system.cpu0.rename.SQFullEvents                  2672                       # Number of times rename has blocked due to SQ full
system.cpu0.rename.RenamedOperands          170648940                       # Number of destination operands rename has renamed
system.cpu0.rename.RenameLookups            784963736                       # Number of register rename lookups that rename has made
system.cpu0.rename.int_rename_lookups       170648482                       # Number of integer rename lookups
system.cpu0.rename.fp_rename_lookups               16                       # Number of floating rename lookups
system.cpu0.rename.CommittedMaps            170641158                       # Number of HB maps that are committed
system.cpu0.rename.UndoneMaps                    7782                       # Number of HB maps that are undone due to squashing
system.cpu0.rename.serializingInsts                59                       # count of serializing insts renamed
system.cpu0.rename.tempSerializingInsts            59                       # count of temporary serializing insts renamed
system.cpu0.rename.skidInsts                     1214                       # count of insts added to the skid buffer
system.cpu0.memDep0.insertedLoads            68243713                       # Number of loads inserted to the mem dependence unit.
system.cpu0.memDep0.insertedStores           34125456                       # Number of stores inserted to the mem dependence unit.
system.cpu0.memDep0.conflictingLoads         34119153                       # Number of conflicting loads.
system.cpu0.memDep0.conflictingStores        34119117                       # Number of conflicting stores.
system.cpu0.iq.iqInstsAdded                 170645502                       # Number of instructions added to the IQ (excludes non-spec)
system.cpu0.iq.iqNonSpecInstsAdded                 84                       # Number of non-speculative instructions added to the IQ
system.cpu0.iq.iqInstsIssued                170643181                       # Number of instructions issued
system.cpu0.iq.iqSquashedInstsIssued              481                       # Number of squashed instructions issued
system.cpu0.iq.iqSquashedInstsExamined           5452                       # Number of squashed instructions iterated over during squash; mainly for profiling
system.cpu0.iq.iqSquashedOperandsExamined        13789                       # Number of squashed operands that are examined and possibly removed from graph
system.cpu0.iq.iqSquashedNonSpecRemoved             7                       # Number of squashed non-spec instructions that were removed
system.cpu0.iq.issued_per_cycle::samples     68277309                       # Number of insts issued each cycle
system.cpu0.iq.issued_per_cycle::mean        2.499266                       # Number of insts issued each cycle
system.cpu0.iq.issued_per_cycle::stdev       0.706913                       # Number of insts issued each cycle
system.cpu0.iq.issued_per_cycle::underflows            0      0.00%      0.00% # Number of insts issued each cycle
system.cpu0.iq.issued_per_cycle::0              16466      0.02%      0.02% # Number of insts issued each cycle
system.cpu0.iq.issued_per_cycle::1            8475942     12.41%     12.44% # Number of insts issued each cycle
system.cpu0.iq.issued_per_cycle::2           17187464     25.17%     37.61% # Number of insts issued each cycle
system.cpu0.iq.issued_per_cycle::3           42597437     62.39%    100.00% # Number of insts issued each cycle
system.cpu0.iq.issued_per_cycle::overflows            0      0.00%    100.00% # Number of insts issued each cycle
system.cpu0.iq.issued_per_cycle::min_value            0                       # Number of insts issued each cycle
system.cpu0.iq.issued_per_cycle::max_value            3                       # Number of insts issued each cycle
system.cpu0.iq.issued_per_cycle::total       68277309                       # Number of insts issued each cycle
system.cpu0.iq.fu_full::No_OpClass                  0                       # attempts to use FU when none available
system.cpu0.iq.fu_full::IntAlu                      0                       # attempts to use FU when none available
system.cpu0.iq.fu_full::IntMult                     0                       # attempts to use FU when none available
system.cpu0.iq.fu_full::IntDiv                      0                       # attempts to use FU when none available
system.cpu0.iq.fu_full::FloatAdd                    0                       # attempts to use FU when none available
system.cpu0.iq.fu_full::FloatCmp                    0                       # attempts to use FU when none available
system.cpu0.iq.fu_full::FloatCvt                    0                       # attempts to use FU when none available
system.cpu0.iq.fu_full::FloatMult                   0                       # attempts to use FU when none available
system.cpu0.iq.fu_full::FloatDiv                    0                       # attempts to use FU when none available
system.cpu0.iq.fu_full::FloatSqrt                   0                       # attempts to use FU when none available
system.cpu0.iq.fu_full::SimdAdd                     0                       # attempts to use FU when none available
system.cpu0.iq.fu_full::SimdAddAcc                  0                       # attempts to use FU when none available
system.cpu0.iq.fu_full::SimdAlu                     0                       # attempts to use FU when none available
system.cpu0.iq.fu_full::SimdCmp                     0                       # attempts to use FU when none available
system.cpu0.iq.fu_full::SimdCvt                     0                       # attempts to use FU when none available
system.cpu0.iq.fu_full::SimdMisc                    0                       # attempts to use FU when none available
system.cpu0.iq.fu_full::SimdMult                    0                       # attempts to use FU when none available
system.cpu0.iq.fu_full::SimdMultAcc                 0                       # attempts to use FU when none available
system.cpu0.iq.fu_full::SimdShift                   0                       # attempts to use FU when none available
system.cpu0.iq.fu_full::SimdShiftAcc                0                       # attempts to use FU when none available
system.cpu0.iq.fu_full::SimdSqrt                    0                       # attempts to use FU when none available
system.cpu0.iq.fu_full::SimdFloatAdd                0                       # attempts to use FU when none available
system.cpu0.iq.fu_full::SimdFloatAlu                0                       # attempts to use FU when none available
system.cpu0.iq.fu_full::SimdFloatCmp                0                       # attempts to use FU when none available
system.cpu0.iq.fu_full::SimdFloatCvt                0                       # attempts to use FU when none available
system.cpu0.iq.fu_full::SimdFloatDiv                0                       # attempts to use FU when none available
system.cpu0.iq.fu_full::SimdFloatMisc               0                       # attempts to use FU when none available
system.cpu0.iq.fu_full::SimdFloatMult               0                       # attempts to use FU when none available
system.cpu0.iq.fu_full::SimdFloatMultAcc            0                       # attempts to use FU when none available
system.cpu0.iq.fu_full::SimdFloatSqrt               0                       # attempts to use FU when none available
system.cpu0.iq.fu_full::MemRead                     0                       # attempts to use FU when none available
system.cpu0.iq.fu_full::MemWrite                    0                       # attempts to use FU when none available
system.cpu0.iq.fu_full::IprAccess                   0                       # attempts to use FU when none available
system.cpu0.iq.fu_full::InstPrefetch                0                       # attempts to use FU when none available
system.cpu0.iq.FU_type_0::No_OpClass                0      0.00%      0.00% # Type of FU issued
system.cpu0.iq.FU_type_0::IntAlu             68274761     40.01%     40.01% # Type of FU issued
system.cpu0.iq.FU_type_0::IntMult                   6      0.00%     40.01% # Type of FU issued
system.cpu0.iq.FU_type_0::IntDiv                    0      0.00%     40.01% # Type of FU issued
system.cpu0.iq.FU_type_0::FloatAdd                  0      0.00%     40.01% # Type of FU issued
system.cpu0.iq.FU_type_0::FloatCmp                  0      0.00%     40.01% # Type of FU issued
system.cpu0.iq.FU_type_0::FloatCvt                  0      0.00%     40.01% # Type of FU issued
system.cpu0.iq.FU_type_0::FloatMult                 0      0.00%     40.01% # Type of FU issued
system.cpu0.iq.FU_type_0::FloatDiv                  0      0.00%     40.01% # Type of FU issued
system.cpu0.iq.FU_type_0::FloatSqrt                 0      0.00%     40.01% # Type of FU issued
system.cpu0.iq.FU_type_0::SimdAdd                   0      0.00%     40.01% # Type of FU issued
system.cpu0.iq.FU_type_0::SimdAddAcc                0      0.00%     40.01% # Type of FU issued
system.cpu0.iq.FU_type_0::SimdAlu                   0      0.00%     40.01% # Type of FU issued
system.cpu0.iq.FU_type_0::SimdCmp                   0      0.00%     40.01% # Type of FU issued
system.cpu0.iq.FU_type_0::SimdCvt                   0      0.00%     40.01% # Type of FU issued
system.cpu0.iq.FU_type_0::SimdMisc                  0      0.00%     40.01% # Type of FU issued
system.cpu0.iq.FU_type_0::SimdMult                  0      0.00%     40.01% # Type of FU issued
system.cpu0.iq.FU_type_0::SimdMultAcc               0      0.00%     40.01% # Type of FU issued
system.cpu0.iq.FU_type_0::SimdShift                 0      0.00%     40.01% # Type of FU issued
system.cpu0.iq.FU_type_0::SimdShiftAcc              0      0.00%     40.01% # Type of FU issued
system.cpu0.iq.FU_type_0::SimdSqrt                  0      0.00%     40.01% # Type of FU issued
system.cpu0.iq.FU_type_0::SimdFloatAdd              0      0.00%     40.01% # Type of FU issued
system.cpu0.iq.FU_type_0::SimdFloatAlu              0      0.00%     40.01% # Type of FU issued
system.cpu0.iq.FU_type_0::SimdFloatCmp              0      0.00%     40.01% # Type of FU issued
system.cpu0.iq.FU_type_0::SimdFloatCvt              0      0.00%     40.01% # Type of FU issued
system.cpu0.iq.FU_type_0::SimdFloatDiv              0      0.00%     40.01% # Type of FU issued
system.cpu0.iq.FU_type_0::SimdFloatMisc             3      0.00%     40.01% # Type of FU issued
system.cpu0.iq.FU_type_0::SimdFloatMult             0      0.00%     40.01% # Type of FU issued
system.cpu0.iq.FU_type_0::SimdFloatMultAcc            0      0.00%     40.01% # Type of FU issued
system.cpu0.iq.FU_type_0::SimdFloatSqrt             0      0.00%     40.01% # Type of FU issued
system.cpu0.iq.FU_type_0::MemRead            68243217     39.99%     80.00% # Type of FU issued
system.cpu0.iq.FU_type_0::MemWrite           34125194     20.00%    100.00% # Type of FU issued
system.cpu0.iq.FU_type_0::IprAccess                 0      0.00%    100.00% # Type of FU issued
system.cpu0.iq.FU_type_0::InstPrefetch              0      0.00%    100.00% # Type of FU issued
system.cpu0.iq.FU_type_0::total             170643181                       # Type of FU issued
system.cpu0.iq.rate                          2.498977                       # Inst issue rate
system.cpu0.iq.fu_busy_cnt                          0                       # FU busy when requested
system.cpu0.iq.fu_busy_rate                         0                       # FU busy rate (busy events/executed inst)
system.cpu0.iq.int_inst_queue_reads         409564120                       # Number of integer instruction queue reads
system.cpu0.iq.int_inst_queue_writes        170651171                       # Number of integer instruction queue writes
system.cpu0.iq.int_inst_queue_wakeup_accesses    170642324                       # Number of integer instruction queue wakeup accesses
system.cpu0.iq.fp_inst_queue_reads                 32                       # Number of floating instruction queue reads
system.cpu0.iq.fp_inst_queue_writes                16                       # Number of floating instruction queue writes
system.cpu0.iq.fp_inst_queue_wakeup_accesses           16                       # Number of floating instruction queue wakeup accesses
system.cpu0.iq.int_alu_accesses             170643165                       # Number of integer alu accesses
system.cpu0.iq.fp_alu_accesses                     16                       # Number of floating point alu accesses
system.cpu0.iew.lsq.thread0.forwLoads        34119397                       # Number of loads that had data forwarded from stores
system.cpu0.iew.lsq.thread0.invAddrLoads            0                       # Number of loads ignored due to an invalid address
system.cpu0.iew.lsq.thread0.squashedLoads         1578                       # Number of loads squashed
system.cpu0.iew.lsq.thread0.ignoredResponses            3                       # Number of memory responses ignored because the instruction is squashed
system.cpu0.iew.lsq.thread0.memOrderViolation          149                       # Number of memory ordering violations
system.cpu0.iew.lsq.thread0.squashedStores          597                       # Number of stores squashed
system.cpu0.iew.lsq.thread0.invAddrSwpfs            0                       # Number of software prefetches ignored due to an invalid address
system.cpu0.iew.lsq.thread0.blockedLoads            0                       # Number of blocked loads due to partial load-store forwarding
system.cpu0.iew.lsq.thread0.rescheduledLoads            3                       # Number of loads that were rescheduled
system.cpu0.iew.lsq.thread0.cacheBlocked            9                       # Number of times an access to memory failed due to the cache being blocked
system.cpu0.iew.iewIdleCycles                       0                       # Number of cycles IEW is idle
system.cpu0.iew.iewSquashCycles                   565                       # Number of cycles IEW is squashing
system.cpu0.iew.iewBlockCycles                    540                       # Number of cycles IEW is blocking
system.cpu0.iew.iewUnblockCycles                  133                       # Number of cycles IEW is unblocking
system.cpu0.iew.iewDispatchedInsts          170645604                       # Number of instructions dispatched to IQ
system.cpu0.iew.iewDispSquashedInsts              240                       # Number of squashed instructions skipped by dispatch
system.cpu0.iew.iewDispLoadInsts             68243713                       # Number of dispatched load instructions
system.cpu0.iew.iewDispStoreInsts            34125456                       # Number of dispatched store instructions
system.cpu0.iew.iewDispNonSpecInsts                54                       # Number of dispatched non-speculative instructions
system.cpu0.iew.iewIQFullEvents                    12                       # Number of times the IQ has become full, causing a stall
system.cpu0.iew.iewLSQFullEvents                    0                       # Number of times the LSQ has become full, causing a stall
system.cpu0.iew.memOrderViolationEvents           149                       # Number of memory order violations
system.cpu0.iew.predictedTakenIncorrect           120                       # Number of branches that were predicted taken incorrectly
system.cpu0.iew.predictedNotTakenIncorrect          311                       # Number of branches that were predicted not taken incorrectly
system.cpu0.iew.branchMispredicts                 431                       # Number of branch mispredicts detected at execute
system.cpu0.iew.iewExecutedInsts            170642642                       # Number of executed instructions
system.cpu0.iew.iewExecLoadInsts             68243107                       # Number of load instructions executed
system.cpu0.iew.iewExecSquashedInsts              539                       # Number of squashed instructions skipped in execute
system.cpu0.iew.exec_swp                            0                       # number of swp insts executed
system.cpu0.iew.exec_nop                           18                       # number of nop insts executed
system.cpu0.iew.exec_refs                   102368109                       # number of memory reference insts executed
system.cpu0.iew.exec_branches                34129599                       # Number of branches executed
system.cpu0.iew.exec_forward_branches            4989                       # Number of forward branches executed
system.cpu0.iew.exec_backward_branches       34122241                       # Number of backward branches executed
system.cpu0.iew.exec_taken_forward_branches         2384                       # Number of forward branches executed that is taken
system.cpu0.iew.exec_nottaken_forward_branches         2605                       # Number of forward branches executed that is not taken
system.cpu0.iew.exec_taken_backward_branches     34121992                       # Number of backward branches executed that is taken
system.cpu0.iew.exec_nottaken_backward_branches          249                       # Number of backward branches executed that is not taken
system.cpu0.iew.exec_stores                  34125002                       # Number of stores executed
system.cpu0.iew.exec_rate                    2.498969                       # Inst execution rate
system.cpu0.iew.wb_sent                     170642413                       # cumulative count of insts sent to commit
system.cpu0.iew.wb_count                    170642340                       # cumulative count of insts written-back
system.cpu0.iew.wb_producers                102381123                       # num instructions producing a value
system.cpu0.iew.wb_consumers                102391991                       # num instructions consuming a value
system.cpu0.iew.wb_penalized                        0                       # number of instrctions required to write to 'other' IQ
system.cpu0.iew.wb_rate                      2.498964                       # insts written-back per cycle
system.cpu0.iew.wb_fanout                    0.999894                       # average fanout of values written-back
system.cpu0.iew.wb_penalized_rate                   0                       # fraction of instructions written-back that wrote to 'other' IQ
system.cpu0.commit.commitSquashedInsts           5469                       # The number of squashed insts skipped by commit
system.cpu0.commit.commitNonSpecStalls             77                       # The number of times commit has been forced to stall to communicate backwards
system.cpu0.commit.branchMispredicts              402                       # The number of times a branch was mispredicted
system.cpu0.commit.committed_per_cycle::samples     68276336                       # Number of insts commited each cycle
system.cpu0.commit.committed_per_cycle::mean     2.499257                       # Number of insts commited each cycle
system.cpu0.commit.committed_per_cycle::stdev     1.580797                       # Number of insts commited each cycle
system.cpu0.commit.committed_per_cycle::underflows            0      0.00%      0.00% # Number of insts commited each cycle
system.cpu0.commit.committed_per_cycle::0        17487      0.03%      0.03% # Number of insts commited each cycle
system.cpu0.commit.committed_per_cycle::1     34127819     49.98%     50.01% # Number of insts commited each cycle
system.cpu0.commit.committed_per_cycle::2         3441      0.01%     50.02% # Number of insts commited each cycle
system.cpu0.commit.committed_per_cycle::3      8474757     12.41%     62.43% # Number of insts commited each cycle
system.cpu0.commit.committed_per_cycle::4     17183711     25.17%     87.60% # Number of insts commited each cycle
system.cpu0.commit.committed_per_cycle::5      8468770     12.40%    100.00% # Number of insts commited each cycle
system.cpu0.commit.committed_per_cycle::6           84      0.00%    100.00% # Number of insts commited each cycle
system.cpu0.commit.committed_per_cycle::7          172      0.00%    100.00% # Number of insts commited each cycle
system.cpu0.commit.committed_per_cycle::8           95      0.00%    100.00% # Number of insts commited each cycle
system.cpu0.commit.committed_per_cycle::overflows            0      0.00%    100.00% # Number of insts commited each cycle
system.cpu0.commit.committed_per_cycle::min_value            0                       # Number of insts commited each cycle
system.cpu0.commit.committed_per_cycle::max_value            8                       # Number of insts commited each cycle
system.cpu0.commit.committed_per_cycle::total     68276336                       # Number of insts commited each cycle
system.cpu0.commit.committedInsts           170636688                       # Number of instructions committed
system.cpu0.commit.committedOps             170640134                       # Number of ops (including micro ops) committed
system.cpu0.commit.swp_count                        0                       # Number of s/w prefetches committed
system.cpu0.commit.refs                     102366994                       # Number of memory references committed
system.cpu0.commit.loads                     68242135                       # Number of loads committed
system.cpu0.commit.membars                         30                       # Number of memory barriers committed
system.cpu0.commit.branches                  34129198                       # Number of branches committed
system.cpu0.commit.fp_insts                        16                       # Number of committed floating point instructions.
system.cpu0.commit.int_insts                136515440                       # Number of committed integer instructions.
system.cpu0.commit.function_calls                2208                       # Number of function calls committed.
system.cpu0.commit.op_class_0::No_OpClass            0      0.00%      0.00% # Class of committed instruction
system.cpu0.commit.op_class_0::IntAlu        68273131     40.01%     40.01% # Class of committed instruction
system.cpu0.commit.op_class_0::IntMult              6      0.00%     40.01% # Class of committed instruction
system.cpu0.commit.op_class_0::IntDiv               0      0.00%     40.01% # Class of committed instruction
system.cpu0.commit.op_class_0::FloatAdd             0      0.00%     40.01% # Class of committed instruction
system.cpu0.commit.op_class_0::FloatCmp             0      0.00%     40.01% # Class of committed instruction
system.cpu0.commit.op_class_0::FloatCvt             0      0.00%     40.01% # Class of committed instruction
system.cpu0.commit.op_class_0::FloatMult            0      0.00%     40.01% # Class of committed instruction
system.cpu0.commit.op_class_0::FloatDiv             0      0.00%     40.01% # Class of committed instruction
system.cpu0.commit.op_class_0::FloatSqrt            0      0.00%     40.01% # Class of committed instruction
system.cpu0.commit.op_class_0::SimdAdd              0      0.00%     40.01% # Class of committed instruction
system.cpu0.commit.op_class_0::SimdAddAcc            0      0.00%     40.01% # Class of committed instruction
system.cpu0.commit.op_class_0::SimdAlu              0      0.00%     40.01% # Class of committed instruction
system.cpu0.commit.op_class_0::SimdCmp              0      0.00%     40.01% # Class of committed instruction
system.cpu0.commit.op_class_0::SimdCvt              0      0.00%     40.01% # Class of committed instruction
system.cpu0.commit.op_class_0::SimdMisc             0      0.00%     40.01% # Class of committed instruction
system.cpu0.commit.op_class_0::SimdMult             0      0.00%     40.01% # Class of committed instruction
system.cpu0.commit.op_class_0::SimdMultAcc            0      0.00%     40.01% # Class of committed instruction
system.cpu0.commit.op_class_0::SimdShift            0      0.00%     40.01% # Class of committed instruction
system.cpu0.commit.op_class_0::SimdShiftAcc            0      0.00%     40.01% # Class of committed instruction
system.cpu0.commit.op_class_0::SimdSqrt             0      0.00%     40.01% # Class of committed instruction
system.cpu0.commit.op_class_0::SimdFloatAdd            0      0.00%     40.01% # Class of committed instruction
system.cpu0.commit.op_class_0::SimdFloatAlu            0      0.00%     40.01% # Class of committed instruction
system.cpu0.commit.op_class_0::SimdFloatCmp            0      0.00%     40.01% # Class of committed instruction
system.cpu0.commit.op_class_0::SimdFloatCvt            0      0.00%     40.01% # Class of committed instruction
system.cpu0.commit.op_class_0::SimdFloatDiv            0      0.00%     40.01% # Class of committed instruction
system.cpu0.commit.op_class_0::SimdFloatMisc            3      0.00%     40.01% # Class of committed instruction
system.cpu0.commit.op_class_0::SimdFloatMult            0      0.00%     40.01% # Class of committed instruction
system.cpu0.commit.op_class_0::SimdFloatMultAcc            0      0.00%     40.01% # Class of committed instruction
system.cpu0.commit.op_class_0::SimdFloatSqrt            0      0.00%     40.01% # Class of committed instruction
system.cpu0.commit.op_class_0::MemRead       68242135     39.99%     80.00% # Class of committed instruction
system.cpu0.commit.op_class_0::MemWrite      34124859     20.00%    100.00% # Class of committed instruction
system.cpu0.commit.op_class_0::IprAccess            0      0.00%    100.00% # Class of committed instruction
system.cpu0.commit.op_class_0::InstPrefetch            0      0.00%    100.00% # Class of committed instruction
system.cpu0.commit.op_class_0::total        170640134                       # Class of committed instruction
system.cpu0.commit.bw_lim_events                   95                       # number cycles where commit BW limit reached
system.cpu0.rob.rob_reads                   238921635                       # The number of ROB reads
system.cpu0.rob.rob_writes                  341292186                       # The number of ROB writes
system.cpu0.timesIdled                            259                       # Number of times that the entire CPU went into an idle state and unscheduled itself
system.cpu0.idleCycles                           7914                       # Total number of cycles that the CPU has spent unscheduled due to idling
system.cpu0.committedInsts                  170636688                       # Number of Instructions Simulated
system.cpu0.committedOps                    170640134                       # Number of Ops (including micro ops) Simulated
system.cpu0.cpi                              0.400179                       # CPI: Cycles Per Instruction
system.cpu0.cpi_total                        0.400179                       # CPI: Total CPI of All Threads
system.cpu0.ipc                              2.498882                       # IPC: Instructions Per Cycle
system.cpu0.ipc_total                        2.498882                       # IPC: Total IPC of All Threads
system.cpu0.int_regfile_reads               170641129                       # number of integer regfile reads
system.cpu0.int_regfile_writes               68265623                       # number of integer regfile writes
system.cpu0.fp_regfile_reads                      656                       # number of floating regfile reads
system.cpu0.cc_regfile_reads                716656290                       # number of cc regfile reads
system.cpu0.cc_regfile_writes               102377872                       # number of cc regfile writes
system.cpu0.misc_regfile_reads              105517483                       # number of misc regfile reads
system.cpu0.misc_regfile_writes                    60                       # number of misc regfile writes
system.cpu0.dcache.tags.replacements              597                       # number of replacements
system.cpu0.dcache.tags.tagsinuse           65.741575                       # Cycle average of tags in use
system.cpu0.dcache.tags.total_refs           68242539                       # Total number of references to valid blocks.
system.cpu0.dcache.tags.sampled_refs              679                       # Sample count of references to valid blocks.
system.cpu0.dcache.tags.avg_refs         100504.475700                       # Average number of references to valid blocks.
system.cpu0.dcache.tags.warmup_cycle         25970000                       # Cycle when the warmup percentage was hit.
system.cpu0.dcache.tags.occ_blocks::cpu0.data    65.741575                       # Average occupied blocks per requestor
system.cpu0.dcache.tags.occ_percent::cpu0.data     0.128402                       # Average percentage of cache occupancy
system.cpu0.dcache.tags.occ_percent::total     0.128402                       # Average percentage of cache occupancy
system.cpu0.dcache.tags.occ_task_id_blocks::1024           82                       # Occupied blocks per task id
system.cpu0.dcache.tags.age_task_id_blocks_1024::0           26                       # Occupied blocks per task id
system.cpu0.dcache.tags.age_task_id_blocks_1024::4           56                       # Occupied blocks per task id
system.cpu0.dcache.tags.occ_task_id_percent::1024     0.160156                       # Percentage of cache occupancy per task id
system.cpu0.dcache.tags.tag_accesses        136497884                       # Number of tag accesses
system.cpu0.dcache.tags.data_accesses       136497884                       # Number of data accesses
system.cpu0.dcache.ReadReq_hits::cpu0.data     34123263                       # number of ReadReq hits
system.cpu0.dcache.ReadReq_hits::total       34123263                       # number of ReadReq hits
system.cpu0.dcache.WriteReq_hits::cpu0.data     34120319                       # number of WriteReq hits
system.cpu0.dcache.WriteReq_hits::total      34120319                       # number of WriteReq hits
system.cpu0.dcache.LoadLockedReq_hits::cpu0.data           25                       # number of LoadLockedReq hits
system.cpu0.dcache.LoadLockedReq_hits::total           25                       # number of LoadLockedReq hits
system.cpu0.dcache.StoreCondReq_hits::cpu0.data           28                       # number of StoreCondReq hits
system.cpu0.dcache.StoreCondReq_hits::total           28                       # number of StoreCondReq hits
system.cpu0.dcache.demand_hits::cpu0.data     68243582                       # number of demand (read+write) hits
system.cpu0.dcache.demand_hits::total        68243582                       # number of demand (read+write) hits
system.cpu0.dcache.overall_hits::cpu0.data     68243582                       # number of overall hits
system.cpu0.dcache.overall_hits::total       68243582                       # number of overall hits
system.cpu0.dcache.ReadReq_misses::cpu0.data          268                       # number of ReadReq misses
system.cpu0.dcache.ReadReq_misses::total          268                       # number of ReadReq misses
system.cpu0.dcache.WriteReq_misses::cpu0.data         4464                       # number of WriteReq misses
system.cpu0.dcache.WriteReq_misses::total         4464                       # number of WriteReq misses
system.cpu0.dcache.LoadLockedReq_misses::cpu0.data            5                       # number of LoadLockedReq misses
system.cpu0.dcache.LoadLockedReq_misses::total            5                       # number of LoadLockedReq misses
system.cpu0.dcache.StoreCondReq_misses::cpu0.data            1                       # number of StoreCondReq misses
system.cpu0.dcache.StoreCondReq_misses::total            1                       # number of StoreCondReq misses
system.cpu0.dcache.demand_misses::cpu0.data         4732                       # number of demand (read+write) misses
system.cpu0.dcache.demand_misses::total          4732                       # number of demand (read+write) misses
system.cpu0.dcache.overall_misses::cpu0.data         4732                       # number of overall misses
system.cpu0.dcache.overall_misses::total         4732                       # number of overall misses
system.cpu0.dcache.ReadReq_miss_latency::cpu0.data     10478487                       # number of ReadReq miss cycles
system.cpu0.dcache.ReadReq_miss_latency::total     10478487                       # number of ReadReq miss cycles
system.cpu0.dcache.WriteReq_miss_latency::cpu0.data    226085999                       # number of WriteReq miss cycles
system.cpu0.dcache.WriteReq_miss_latency::total    226085999                       # number of WriteReq miss cycles
system.cpu0.dcache.LoadLockedReq_miss_latency::cpu0.data       171500                       # number of LoadLockedReq miss cycles
system.cpu0.dcache.LoadLockedReq_miss_latency::total       171500                       # number of LoadLockedReq miss cycles
system.cpu0.dcache.StoreCondReq_miss_latency::cpu0.data         7500                       # number of StoreCondReq miss cycles
system.cpu0.dcache.StoreCondReq_miss_latency::total         7500                       # number of StoreCondReq miss cycles
system.cpu0.dcache.demand_miss_latency::cpu0.data    236564486                       # number of demand (read+write) miss cycles
system.cpu0.dcache.demand_miss_latency::total    236564486                       # number of demand (read+write) miss cycles
system.cpu0.dcache.overall_miss_latency::cpu0.data    236564486                       # number of overall miss cycles
system.cpu0.dcache.overall_miss_latency::total    236564486                       # number of overall miss cycles
system.cpu0.dcache.ReadReq_accesses::cpu0.data     34123531                       # number of ReadReq accesses(hits+misses)
system.cpu0.dcache.ReadReq_accesses::total     34123531                       # number of ReadReq accesses(hits+misses)
system.cpu0.dcache.WriteReq_accesses::cpu0.data     34124783                       # number of WriteReq accesses(hits+misses)
system.cpu0.dcache.WriteReq_accesses::total     34124783                       # number of WriteReq accesses(hits+misses)
system.cpu0.dcache.LoadLockedReq_accesses::cpu0.data           30                       # number of LoadLockedReq accesses(hits+misses)
system.cpu0.dcache.LoadLockedReq_accesses::total           30                       # number of LoadLockedReq accesses(hits+misses)
system.cpu0.dcache.StoreCondReq_accesses::cpu0.data           29                       # number of StoreCondReq accesses(hits+misses)
system.cpu0.dcache.StoreCondReq_accesses::total           29                       # number of StoreCondReq accesses(hits+misses)
system.cpu0.dcache.demand_accesses::cpu0.data     68248314                       # number of demand (read+write) accesses
system.cpu0.dcache.demand_accesses::total     68248314                       # number of demand (read+write) accesses
system.cpu0.dcache.overall_accesses::cpu0.data     68248314                       # number of overall (read+write) accesses
system.cpu0.dcache.overall_accesses::total     68248314                       # number of overall (read+write) accesses
system.cpu0.dcache.ReadReq_miss_rate::cpu0.data     0.000008                       # miss rate for ReadReq accesses
system.cpu0.dcache.ReadReq_miss_rate::total     0.000008                       # miss rate for ReadReq accesses
system.cpu0.dcache.WriteReq_miss_rate::cpu0.data     0.000131                       # miss rate for WriteReq accesses
system.cpu0.dcache.WriteReq_miss_rate::total     0.000131                       # miss rate for WriteReq accesses
system.cpu0.dcache.LoadLockedReq_miss_rate::cpu0.data     0.166667                       # miss rate for LoadLockedReq accesses
system.cpu0.dcache.LoadLockedReq_miss_rate::total     0.166667                       # miss rate for LoadLockedReq accesses
system.cpu0.dcache.StoreCondReq_miss_rate::cpu0.data     0.034483                       # miss rate for StoreCondReq accesses
system.cpu0.dcache.StoreCondReq_miss_rate::total     0.034483                       # miss rate for StoreCondReq accesses
system.cpu0.dcache.demand_miss_rate::cpu0.data     0.000069                       # miss rate for demand accesses
system.cpu0.dcache.demand_miss_rate::total     0.000069                       # miss rate for demand accesses
system.cpu0.dcache.overall_miss_rate::cpu0.data     0.000069                       # miss rate for overall accesses
system.cpu0.dcache.overall_miss_rate::total     0.000069                       # miss rate for overall accesses
system.cpu0.dcache.ReadReq_avg_miss_latency::cpu0.data 39098.832090                       # average ReadReq miss latency
system.cpu0.dcache.ReadReq_avg_miss_latency::total 39098.832090                       # average ReadReq miss latency
system.cpu0.dcache.WriteReq_avg_miss_latency::cpu0.data 50646.505152                       # average WriteReq miss latency
system.cpu0.dcache.WriteReq_avg_miss_latency::total 50646.505152                       # average WriteReq miss latency
system.cpu0.dcache.LoadLockedReq_avg_miss_latency::cpu0.data        34300                       # average LoadLockedReq miss latency
system.cpu0.dcache.LoadLockedReq_avg_miss_latency::total        34300                       # average LoadLockedReq miss latency
system.cpu0.dcache.StoreCondReq_avg_miss_latency::cpu0.data         7500                       # average StoreCondReq miss latency
system.cpu0.dcache.StoreCondReq_avg_miss_latency::total         7500                       # average StoreCondReq miss latency
system.cpu0.dcache.demand_avg_miss_latency::cpu0.data 49992.494928                       # average overall miss latency
system.cpu0.dcache.demand_avg_miss_latency::total 49992.494928                       # average overall miss latency
system.cpu0.dcache.overall_avg_miss_latency::cpu0.data 49992.494928                       # average overall miss latency
system.cpu0.dcache.overall_avg_miss_latency::total 49992.494928                       # average overall miss latency
system.cpu0.dcache.blocked_cycles::no_mshrs           72                       # number of cycles access was blocked
system.cpu0.dcache.blocked_cycles::no_targets            0                       # number of cycles access was blocked
system.cpu0.dcache.blocked::no_mshrs                7                       # number of cycles access was blocked
system.cpu0.dcache.blocked::no_targets              0                       # number of cycles access was blocked
system.cpu0.dcache.avg_blocked_cycles::no_mshrs    10.285714                       # average number of cycles each access was blocked
system.cpu0.dcache.avg_blocked_cycles::no_targets          nan                       # average number of cycles each access was blocked
system.cpu0.dcache.fast_writes                      0                       # number of fast writes performed
system.cpu0.dcache.cache_copies                     0                       # number of cache copies performed
system.cpu0.dcache.writebacks::writebacks          518                       # number of writebacks
system.cpu0.dcache.writebacks::total              518                       # number of writebacks
system.cpu0.dcache.ReadReq_mshr_hits::cpu0.data           92                       # number of ReadReq MSHR hits
system.cpu0.dcache.ReadReq_mshr_hits::total           92                       # number of ReadReq MSHR hits
system.cpu0.dcache.WriteReq_mshr_hits::cpu0.data         3498                       # number of WriteReq MSHR hits
system.cpu0.dcache.WriteReq_mshr_hits::total         3498                       # number of WriteReq MSHR hits
system.cpu0.dcache.LoadLockedReq_mshr_hits::cpu0.data            5                       # number of LoadLockedReq MSHR hits
system.cpu0.dcache.LoadLockedReq_mshr_hits::total            5                       # number of LoadLockedReq MSHR hits
system.cpu0.dcache.demand_mshr_hits::cpu0.data         3590                       # number of demand (read+write) MSHR hits
system.cpu0.dcache.demand_mshr_hits::total         3590                       # number of demand (read+write) MSHR hits
system.cpu0.dcache.overall_mshr_hits::cpu0.data         3590                       # number of overall MSHR hits
system.cpu0.dcache.overall_mshr_hits::total         3590                       # number of overall MSHR hits
system.cpu0.dcache.ReadReq_mshr_misses::cpu0.data          176                       # number of ReadReq MSHR misses
system.cpu0.dcache.ReadReq_mshr_misses::total          176                       # number of ReadReq MSHR misses
system.cpu0.dcache.WriteReq_mshr_misses::cpu0.data          966                       # number of WriteReq MSHR misses
system.cpu0.dcache.WriteReq_mshr_misses::total          966                       # number of WriteReq MSHR misses
system.cpu0.dcache.StoreCondReq_mshr_misses::cpu0.data            1                       # number of StoreCondReq MSHR misses
system.cpu0.dcache.StoreCondReq_mshr_misses::total            1                       # number of StoreCondReq MSHR misses
system.cpu0.dcache.demand_mshr_misses::cpu0.data         1142                       # number of demand (read+write) MSHR misses
system.cpu0.dcache.demand_mshr_misses::total         1142                       # number of demand (read+write) MSHR misses
system.cpu0.dcache.overall_mshr_misses::cpu0.data         1142                       # number of overall MSHR misses
system.cpu0.dcache.overall_mshr_misses::total         1142                       # number of overall MSHR misses
system.cpu0.dcache.ReadReq_mshr_miss_latency::cpu0.data      6660009                       # number of ReadReq MSHR miss cycles
system.cpu0.dcache.ReadReq_mshr_miss_latency::total      6660009                       # number of ReadReq MSHR miss cycles
system.cpu0.dcache.WriteReq_mshr_miss_latency::cpu0.data     52717500                       # number of WriteReq MSHR miss cycles
system.cpu0.dcache.WriteReq_mshr_miss_latency::total     52717500                       # number of WriteReq MSHR miss cycles
system.cpu0.dcache.StoreCondReq_mshr_miss_latency::cpu0.data         4500                       # number of StoreCondReq MSHR miss cycles
system.cpu0.dcache.StoreCondReq_mshr_miss_latency::total         4500                       # number of StoreCondReq MSHR miss cycles
system.cpu0.dcache.demand_mshr_miss_latency::cpu0.data     59377509                       # number of demand (read+write) MSHR miss cycles
system.cpu0.dcache.demand_mshr_miss_latency::total     59377509                       # number of demand (read+write) MSHR miss cycles
system.cpu0.dcache.overall_mshr_miss_latency::cpu0.data     59377509                       # number of overall MSHR miss cycles
system.cpu0.dcache.overall_mshr_miss_latency::total     59377509                       # number of overall MSHR miss cycles
system.cpu0.dcache.ReadReq_mshr_miss_rate::cpu0.data     0.000005                       # mshr miss rate for ReadReq accesses
system.cpu0.dcache.ReadReq_mshr_miss_rate::total     0.000005                       # mshr miss rate for ReadReq accesses
system.cpu0.dcache.WriteReq_mshr_miss_rate::cpu0.data     0.000028                       # mshr miss rate for WriteReq accesses
system.cpu0.dcache.WriteReq_mshr_miss_rate::total     0.000028                       # mshr miss rate for WriteReq accesses
system.cpu0.dcache.StoreCondReq_mshr_miss_rate::cpu0.data     0.034483                       # mshr miss rate for StoreCondReq accesses
system.cpu0.dcache.StoreCondReq_mshr_miss_rate::total     0.034483                       # mshr miss rate for StoreCondReq accesses
system.cpu0.dcache.demand_mshr_miss_rate::cpu0.data     0.000017                       # mshr miss rate for demand accesses
system.cpu0.dcache.demand_mshr_miss_rate::total     0.000017                       # mshr miss rate for demand accesses
system.cpu0.dcache.overall_mshr_miss_rate::cpu0.data     0.000017                       # mshr miss rate for overall accesses
system.cpu0.dcache.overall_mshr_miss_rate::total     0.000017                       # mshr miss rate for overall accesses
system.cpu0.dcache.ReadReq_avg_mshr_miss_latency::cpu0.data 37840.960227                       # average ReadReq mshr miss latency
system.cpu0.dcache.ReadReq_avg_mshr_miss_latency::total 37840.960227                       # average ReadReq mshr miss latency
system.cpu0.dcache.WriteReq_avg_mshr_miss_latency::cpu0.data 54572.981366                       # average WriteReq mshr miss latency
system.cpu0.dcache.WriteReq_avg_mshr_miss_latency::total 54572.981366                       # average WriteReq mshr miss latency
system.cpu0.dcache.StoreCondReq_avg_mshr_miss_latency::cpu0.data         4500                       # average StoreCondReq mshr miss latency
system.cpu0.dcache.StoreCondReq_avg_mshr_miss_latency::total         4500                       # average StoreCondReq mshr miss latency
system.cpu0.dcache.demand_avg_mshr_miss_latency::cpu0.data 51994.316112                       # average overall mshr miss latency
system.cpu0.dcache.demand_avg_mshr_miss_latency::total 51994.316112                       # average overall mshr miss latency
system.cpu0.dcache.overall_avg_mshr_miss_latency::cpu0.data 51994.316112                       # average overall mshr miss latency
system.cpu0.dcache.overall_avg_mshr_miss_latency::total 51994.316112                       # average overall mshr miss latency
system.cpu0.dcache.no_allocate_misses               0                       # Number of misses that were no-allocate
system.cpu0.icache.tags.replacements               77                       # number of replacements
system.cpu0.icache.tags.tagsinuse          292.927709                       # Cycle average of tags in use
system.cpu0.icache.tags.total_refs               6313                       # Total number of references to valid blocks.
system.cpu0.icache.tags.sampled_refs              397                       # Sample count of references to valid blocks.
system.cpu0.icache.tags.avg_refs            15.901763                       # Average number of references to valid blocks.
system.cpu0.icache.tags.warmup_cycle                0                       # Cycle when the warmup percentage was hit.
system.cpu0.icache.tags.occ_blocks::cpu0.inst   292.927709                       # Average occupied blocks per requestor
system.cpu0.icache.tags.occ_percent::cpu0.inst     0.572124                       # Average percentage of cache occupancy
system.cpu0.icache.tags.occ_percent::total     0.572124                       # Average percentage of cache occupancy
system.cpu0.icache.tags.occ_task_id_blocks::1024          320                       # Occupied blocks per task id
system.cpu0.icache.tags.age_task_id_blocks_1024::0           45                       # Occupied blocks per task id
system.cpu0.icache.tags.age_task_id_blocks_1024::4          275                       # Occupied blocks per task id
system.cpu0.icache.tags.occ_task_id_percent::1024     0.625000                       # Percentage of cache occupancy per task id
system.cpu0.icache.tags.tag_accesses            13957                       # Number of tag accesses
system.cpu0.icache.tags.data_accesses           13957                       # Number of data accesses
system.cpu0.icache.ReadReq_hits::cpu0.inst         6313                       # number of ReadReq hits
system.cpu0.icache.ReadReq_hits::total           6313                       # number of ReadReq hits
system.cpu0.icache.demand_hits::cpu0.inst         6313                       # number of demand (read+write) hits
system.cpu0.icache.demand_hits::total            6313                       # number of demand (read+write) hits
system.cpu0.icache.overall_hits::cpu0.inst         6313                       # number of overall hits
system.cpu0.icache.overall_hits::total           6313                       # number of overall hits
system.cpu0.icache.ReadReq_misses::cpu0.inst          467                       # number of ReadReq misses
system.cpu0.icache.ReadReq_misses::total          467                       # number of ReadReq misses
system.cpu0.icache.demand_misses::cpu0.inst          467                       # number of demand (read+write) misses
system.cpu0.icache.demand_misses::total           467                       # number of demand (read+write) misses
system.cpu0.icache.overall_misses::cpu0.inst          467                       # number of overall misses
system.cpu0.icache.overall_misses::total          467                       # number of overall misses
system.cpu0.icache.ReadReq_miss_latency::cpu0.inst     23702999                       # number of ReadReq miss cycles
system.cpu0.icache.ReadReq_miss_latency::total     23702999                       # number of ReadReq miss cycles
system.cpu0.icache.demand_miss_latency::cpu0.inst     23702999                       # number of demand (read+write) miss cycles
system.cpu0.icache.demand_miss_latency::total     23702999                       # number of demand (read+write) miss cycles
system.cpu0.icache.overall_miss_latency::cpu0.inst     23702999                       # number of overall miss cycles
system.cpu0.icache.overall_miss_latency::total     23702999                       # number of overall miss cycles
system.cpu0.icache.ReadReq_accesses::cpu0.inst         6780                       # number of ReadReq accesses(hits+misses)
system.cpu0.icache.ReadReq_accesses::total         6780                       # number of ReadReq accesses(hits+misses)
system.cpu0.icache.demand_accesses::cpu0.inst         6780                       # number of demand (read+write) accesses
system.cpu0.icache.demand_accesses::total         6780                       # number of demand (read+write) accesses
system.cpu0.icache.overall_accesses::cpu0.inst         6780                       # number of overall (read+write) accesses
system.cpu0.icache.overall_accesses::total         6780                       # number of overall (read+write) accesses
[...]
system.l2.demand_mshr_miss_rate::cpu4.data     0.496253                       # mshr miss rate for demand accesses
system.l2.demand_mshr_miss_rate::total       0.494561                       # mshr miss rate for demand accesses
system.l2.overall_mshr_miss_rate::cpu0.inst     0.894207                       # mshr miss rate for overall accesses
system.l2.overall_mshr_miss_rate::cpu0.data     0.924845                       # mshr miss rate for overall accesses
system.l2.overall_mshr_miss_rate::cpu1.inst     0.013942                       # mshr miss rate for overall accesses
system.l2.overall_mshr_miss_rate::cpu1.data     0.487421                       # mshr miss rate for overall accesses
system.l2.overall_mshr_miss_rate::cpu2.inst     0.048247                       # mshr miss rate for overall accesses
system.l2.overall_mshr_miss_rate::cpu2.data     0.509920                       # mshr miss rate for overall accesses
system.l2.overall_mshr_miss_rate::cpu3.inst     0.042721                       # mshr miss rate for overall accesses
system.l2.overall_mshr_miss_rate::cpu3.data     0.514145                       # mshr miss rate for overall accesses
system.l2.overall_mshr_miss_rate::cpu4.inst     0.044998                       # mshr miss rate for overall accesses
system.l2.overall_mshr_miss_rate::cpu4.data     0.496253                       # mshr miss rate for overall accesses
system.l2.overall_mshr_miss_rate::total      0.494561                       # mshr miss rate for overall accesses
system.l2.ReadReq_avg_mshr_miss_latency::cpu0.inst 41047.887324                       # average ReadReq mshr miss latency
system.l2.ReadReq_avg_mshr_miss_latency::cpu0.data 42353.260870                       # average ReadReq mshr miss latency
system.l2.ReadReq_avg_mshr_miss_latency::cpu1.inst 40787.878788                       # average ReadReq mshr miss latency
system.l2.ReadReq_avg_mshr_miss_latency::cpu1.data 40520.363387                       # average ReadReq mshr miss latency
system.l2.ReadReq_avg_mshr_miss_latency::cpu2.inst 40978.632479                       # average ReadReq mshr miss latency
system.l2.ReadReq_avg_mshr_miss_latency::cpu2.data 40521.463740                       # average ReadReq mshr miss latency
system.l2.ReadReq_avg_mshr_miss_latency::cpu3.inst 40985.436893                       # average ReadReq mshr miss latency
system.l2.ReadReq_avg_mshr_miss_latency::cpu3.data 40519.426672                       # average ReadReq mshr miss latency
system.l2.ReadReq_avg_mshr_miss_latency::cpu4.inst        40750                       # average ReadReq mshr miss latency
system.l2.ReadReq_avg_mshr_miss_latency::cpu4.data 40522.068511                       # average ReadReq mshr miss latency
system.l2.ReadReq_avg_mshr_miss_latency::total 40522.820923                       # average ReadReq mshr miss latency
system.l2.UpgradeReq_avg_mshr_miss_latency::cpu0.data        40500                       # average UpgradeReq mshr miss latency
system.l2.UpgradeReq_avg_mshr_miss_latency::cpu1.data 40689.870657                       # average UpgradeReq mshr miss latency
system.l2.UpgradeReq_avg_mshr_miss_latency::cpu2.data 40686.973043                       # average UpgradeReq mshr miss latency
system.l2.UpgradeReq_avg_mshr_miss_latency::cpu3.data 40690.321407                       # average UpgradeReq mshr miss latency
system.l2.UpgradeReq_avg_mshr_miss_latency::cpu4.data 40722.522667                       # average UpgradeReq mshr miss latency
system.l2.UpgradeReq_avg_mshr_miss_latency::total 40697.656633                       # average UpgradeReq mshr miss latency
system.l2.SCUpgradeReq_avg_mshr_miss_latency::cpu1.data 40553.587352                       # average SCUpgradeReq mshr miss latency
system.l2.SCUpgradeReq_avg_mshr_miss_latency::cpu2.data 40553.993286                       # average SCUpgradeReq mshr miss latency
system.l2.SCUpgradeReq_avg_mshr_miss_latency::cpu3.data 40554.735668                       # average SCUpgradeReq mshr miss latency
system.l2.SCUpgradeReq_avg_mshr_miss_latency::cpu4.data 40549.257962                       # average SCUpgradeReq mshr miss latency
system.l2.SCUpgradeReq_avg_mshr_miss_latency::total 40552.878369                       # average SCUpgradeReq mshr miss latency
system.l2.ReadExReq_avg_mshr_miss_latency::cpu0.data 40571.278826                       # average ReadExReq mshr miss latency
system.l2.ReadExReq_avg_mshr_miss_latency::cpu1.data 40945.147679                       # average ReadExReq mshr miss latency
system.l2.ReadExReq_avg_mshr_miss_latency::cpu2.data 40863.448276                       # average ReadExReq mshr miss latency
system.l2.ReadExReq_avg_mshr_miss_latency::cpu3.data 40629.834254                       # average ReadExReq mshr miss latency
system.l2.ReadExReq_avg_mshr_miss_latency::cpu4.data 40724.066390                       # average ReadExReq mshr miss latency
system.l2.ReadExReq_avg_mshr_miss_latency::total 40735.600730                       # average ReadExReq mshr miss latency
system.l2.demand_avg_mshr_miss_latency::cpu0.inst 41047.887324                       # average overall mshr miss latency
system.l2.demand_avg_mshr_miss_latency::cpu0.data 40728.011472                       # average overall mshr miss latency
system.l2.demand_avg_mshr_miss_latency::cpu1.inst 40787.878788                       # average overall mshr miss latency
system.l2.demand_avg_mshr_miss_latency::cpu1.data 40525.477977                       # average overall mshr miss latency
system.l2.demand_avg_mshr_miss_latency::cpu2.inst 40978.632479                       # average overall mshr miss latency
system.l2.demand_avg_mshr_miss_latency::cpu2.data 40525.650551                       # average overall mshr miss latency
system.l2.demand_avg_mshr_miss_latency::cpu3.inst 40985.436893                       # average overall mshr miss latency
system.l2.demand_avg_mshr_miss_latency::cpu3.data 40520.654177                       # average overall mshr miss latency
system.l2.demand_avg_mshr_miss_latency::cpu4.inst        40750                       # average overall mshr miss latency
system.l2.demand_avg_mshr_miss_latency::cpu4.data 40524.505632                       # average overall mshr miss latency
system.l2.demand_avg_mshr_miss_latency::total 40526.152459                       # average overall mshr miss latency
system.l2.overall_avg_mshr_miss_latency::cpu0.inst 41047.887324                       # average overall mshr miss latency
system.l2.overall_avg_mshr_miss_latency::cpu0.data 40728.011472                       # average overall mshr miss latency
system.l2.overall_avg_mshr_miss_latency::cpu1.inst 40787.878788                       # average overall mshr miss latency
system.l2.overall_avg_mshr_miss_latency::cpu1.data 40525.477977                       # average overall mshr miss latency
system.l2.overall_avg_mshr_miss_latency::cpu2.inst 40978.632479                       # average overall mshr miss latency
system.l2.overall_avg_mshr_miss_latency::cpu2.data 40525.650551                       # average overall mshr miss latency
system.l2.overall_avg_mshr_miss_latency::cpu3.inst 40985.436893                       # average overall mshr miss latency
system.l2.overall_avg_mshr_miss_latency::cpu3.data 40520.654177                       # average overall mshr miss latency
system.l2.overall_avg_mshr_miss_latency::cpu4.inst        40750                       # average overall mshr miss latency
system.l2.overall_avg_mshr_miss_latency::cpu4.data 40524.505632                       # average overall mshr miss latency
system.l2.overall_avg_mshr_miss_latency::total 40526.152459                       # average overall mshr miss latency
system.l2.no_allocate_misses                        0                       # Number of misses that were no-allocate
system.membus.trans_dist::ReadReq              241226                       # Transaction distribution
system.membus.trans_dist::ReadResp             241226                       # Transaction distribution
system.membus.trans_dist::Writeback              2772                       # Transaction distribution
system.membus.trans_dist::UpgradeReq           514727                       # Transaction distribution
system.membus.trans_dist::SCUpgradeReq         702739                       # Transaction distribution
system.membus.trans_dist::UpgradeResp          617893                       # Transaction distribution
system.membus.trans_dist::SCUpgradeFailReq           28                       # Transaction distribution
system.membus.trans_dist::ReadExReq              9274                       # Transaction distribution
system.membus.trans_dist::ReadExResp             3834                       # Transaction distribution
system.membus.pkt_count_system.l2.mem_side::system.physmem.port      2333719                       # Packet count per connected master and slave (bytes)
system.membus.pkt_count::total                2333719                       # Packet count per connected master and slave (bytes)
system.membus.pkt_size_system.l2.mem_side::system.physmem.port     15861248                       # Cumulative packet size per connected master and slave (bytes)
system.membus.pkt_size::total                15861248                       # Cumulative packet size per connected master and slave (bytes)
system.membus.snoops                           605041                       # Total snoops (count)
system.membus.snoop_fanout::samples           1482599                       # Request fanout histogram
system.membus.snoop_fanout::mean                    0                       # Request fanout histogram
system.membus.snoop_fanout::stdev                   0                       # Request fanout histogram
system.membus.snoop_fanout::underflows              0      0.00%      0.00% # Request fanout histogram
system.membus.snoop_fanout::0                 1482599    100.00%    100.00% # Request fanout histogram
system.membus.snoop_fanout::1                       0      0.00%    100.00% # Request fanout histogram
system.membus.snoop_fanout::overflows               0      0.00%    100.00% # Request fanout histogram
system.membus.snoop_fanout::min_value               0                       # Request fanout histogram
system.membus.snoop_fanout::max_value               0                       # Request fanout histogram
system.membus.snoop_fanout::total             1482599                       # Request fanout histogram
system.membus.reqLayer0.occupancy          1296087325                       # Layer occupancy (ticks)
system.membus.reqLayer0.utilization               1.9                       # Layer utilization (%)
system.membus.respLayer1.occupancy         2236814347                       # Layer occupancy (ticks)
system.membus.respLayer1.utilization              3.3                       # Layer utilization (%)
system.tol2bus.trans_dist::ReadReq            2869260                       # Transaction distribution
system.tol2bus.trans_dist::ReadResp           2868462                       # Transaction distribution
system.tol2bus.trans_dist::ReadRespWithInvalidate          798                       # Transaction distribution
system.tol2bus.trans_dist::Writeback            67792                       # Transaction distribution
system.tol2bus.trans_dist::UpgradeReq          514992                       # Transaction distribution
system.tol2bus.trans_dist::SCUpgradeReq        702772                       # Transaction distribution
system.tol2bus.trans_dist::UpgradeResp        1217764                       # Transaction distribution
system.tol2bus.trans_dist::SCUpgradeFailReq        64856                       # Transaction distribution
system.tol2bus.trans_dist::UpgradeFailResp        64856                       # Transaction distribution
system.tol2bus.trans_dist::ReadExReq           292932                       # Transaction distribution
system.tol2bus.trans_dist::ReadExResp          292932                       # Transaction distribution
system.tol2bus.pkt_count_system.cpu0.icache.mem_side::system.l2.cpu_side          794                       # Packet count per connected master and slave (bytes)
system.tol2bus.pkt_count_system.cpu0.dcache.mem_side::system.l2.cpu_side         2795                       # Packet count per connected master and slave (bytes)
system.tol2bus.pkt_count_system.cpu1.icache.mem_side::system.l2.cpu_side         4734                       # Packet count per connected master and slave (bytes)
system.tol2bus.pkt_count_system.cpu1.dcache.mem_side::system.l2.cpu_side      1408139                       # Packet count per connected master and slave (bytes)
system.tol2bus.pkt_count_system.cpu2.icache.mem_side::system.l2.cpu_side         4850                       # Packet count per connected master and slave (bytes)
system.tol2bus.pkt_count_system.cpu2.dcache.mem_side::system.l2.cpu_side      1392021                       # Packet count per connected master and slave (bytes)
system.tol2bus.pkt_count_system.cpu3.icache.mem_side::system.l2.cpu_side         4822                       # Packet count per connected master and slave (bytes)
system.tol2bus.pkt_count_system.cpu3.dcache.mem_side::system.l2.cpu_side      1429620                       # Packet count per connected master and slave (bytes)
system.tol2bus.pkt_count_system.cpu4.icache.mem_side::system.l2.cpu_side         4178                       # Packet count per connected master and slave (bytes)
system.tol2bus.pkt_count_system.cpu4.dcache.mem_side::system.l2.cpu_side      1374358                       # Packet count per connected master and slave (bytes)
system.tol2bus.pkt_count::total               5626311                       # Packet count per connected master and slave (bytes)
system.tol2bus.pkt_size_system.cpu0.icache.mem_side::system.l2.cpu_side        25408                       # Cumulative packet size per connected master and slave (bytes)
system.tol2bus.pkt_size_system.cpu0.dcache.mem_side::system.l2.cpu_side       105536                       # Cumulative packet size per connected master and slave (bytes)
system.tol2bus.pkt_size_system.cpu1.icache.mem_side::system.l2.cpu_side       151488                       # Cumulative packet size per connected master and slave (bytes)
system.tol2bus.pkt_size_system.cpu1.dcache.mem_side::system.l2.cpu_side      8858176                       # Cumulative packet size per connected master and slave (bytes)
system.tol2bus.pkt_size_system.cpu2.icache.mem_side::system.l2.cpu_side       155200                       # Cumulative packet size per connected master and slave (bytes)
system.tol2bus.pkt_size_system.cpu2.dcache.mem_side::system.l2.cpu_side      8431360                       # Cumulative packet size per connected master and slave (bytes)
system.tol2bus.pkt_size_system.cpu3.icache.mem_side::system.l2.cpu_side       154304                       # Cumulative packet size per connected master and slave (bytes)
system.tol2bus.pkt_size_system.cpu3.dcache.mem_side::system.l2.cpu_side      9291584                       # Cumulative packet size per connected master and slave (bytes)
system.tol2bus.pkt_size_system.cpu4.icache.mem_side::system.l2.cpu_side       133696                       # Cumulative packet size per connected master and slave (bytes)
system.tol2bus.pkt_size_system.cpu4.dcache.mem_side::system.l2.cpu_side      8744960                       # Cumulative packet size per connected master and slave (bytes)
system.tol2bus.pkt_size::total               36051712                       # Cumulative packet size per connected master and slave (bytes)
system.tol2bus.snoops                         3331105                       # Total snoops (count)
system.tol2bus.snoop_fanout::samples          4512604                       # Request fanout histogram
system.tol2bus.snoop_fanout::mean                   9                       # Request fanout histogram
system.tol2bus.snoop_fanout::stdev                  0                       # Request fanout histogram
system.tol2bus.snoop_fanout::underflows             0      0.00%      0.00% # Request fanout histogram
system.tol2bus.snoop_fanout::0                      0      0.00%      0.00% # Request fanout histogram
system.tol2bus.snoop_fanout::1                      0      0.00%      0.00% # Request fanout histogram
system.tol2bus.snoop_fanout::2                      0      0.00%      0.00% # Request fanout histogram
system.tol2bus.snoop_fanout::3                      0      0.00%      0.00% # Request fanout histogram
system.tol2bus.snoop_fanout::4                      0      0.00%      0.00% # Request fanout histogram
system.tol2bus.snoop_fanout::5                      0      0.00%      0.00% # Request fanout histogram
system.tol2bus.snoop_fanout::6                      0      0.00%      0.00% # Request fanout histogram
system.tol2bus.snoop_fanout::7                      0      0.00%      0.00% # Request fanout histogram
system.tol2bus.snoop_fanout::8                      0      0.00%      0.00% # Request fanout histogram
system.tol2bus.snoop_fanout::9                4512604    100.00%    100.00% # Request fanout histogram
system.tol2bus.snoop_fanout::10                     0      0.00%    100.00% # Request fanout histogram
system.tol2bus.snoop_fanout::overflows              0      0.00%    100.00% # Request fanout histogram
system.tol2bus.snoop_fanout::min_value              9                       # Request fanout histogram
system.tol2bus.snoop_fanout::max_value              9                       # Request fanout histogram
system.tol2bus.snoop_fanout::total            4512604                       # Request fanout histogram
system.tol2bus.reqLayer0.occupancy         2363823130                       # Layer occupancy (ticks)
system.tol2bus.reqLayer0.utilization              3.5                       # Layer utilization (%)
system.tol2bus.respLayer0.occupancy            595999                       # Layer occupancy (ticks)
system.tol2bus.respLayer0.utilization             0.0                       # Layer utilization (%)
system.tol2bus.respLayer1.occupancy           1713991                       # Layer occupancy (ticks)
system.tol2bus.respLayer1.utilization             0.0                       # Layer utilization (%)
system.tol2bus.respLayer4.occupancy           3587369                       # Layer occupancy (ticks)
system.tol2bus.respLayer4.utilization             0.0                       # Layer utilization (%)
system.tol2bus.respLayer5.occupancy        1462597621                       # Layer occupancy (ticks)
system.tol2bus.respLayer5.utilization             2.1                       # Layer utilization (%)
system.tol2bus.respLayer8.occupancy           3665914                       # Layer occupancy (ticks)
system.tol2bus.respLayer8.utilization             0.0                       # Layer utilization (%)
system.tol2bus.respLayer9.occupancy        1458472346                       # Layer occupancy (ticks)
system.tol2bus.respLayer9.utilization             2.1                       # Layer utilization (%)
system.tol2bus.respLayer12.occupancy          3654894                       # Layer occupancy (ticks)
system.tol2bus.respLayer12.utilization            0.0                       # Layer utilization (%)
system.tol2bus.respLayer13.occupancy       1494755024                       # Layer occupancy (ticks)
system.tol2bus.respLayer13.utilization            2.2                       # Layer utilization (%)
system.tol2bus.respLayer16.occupancy          3165392                       # Layer occupancy (ticks)
system.tol2bus.respLayer16.utilization            0.0                       # Layer utilization (%)
system.tol2bus.respLayer17.occupancy       1405642886                       # Layer occupancy (ticks)
system.tol2bus.respLayer17.utilization            2.1                       # Layer utilization (%)

---------- End Simulation Statistics   ----------
