
---------- Begin Simulation Statistics ----------
sim_seconds                                  0.084110                       # Number of seconds simulated
sim_ticks                                 84109836000                       # Number of ticks simulated
final_tick                                84109836000                       # Number of ticks from beginning of simulation (restored from checkpoints and never reset)
sim_freq                                 1000000000000                       # Frequency of simulated ticks
host_inst_rate                                 100468                       # Simulator instruction rate (inst/s)
host_op_rate                                   101982                       # Simulator op (including micro ops) rate (op/s)
host_tick_rate                               13029871                       # Simulator tick rate (ticks/s)
host_mem_usage                                 886116                       # Number of bytes of host memory used
host_seconds                                  6455.16                       # Real time elapsed on the host
sim_insts                                   648537038                       # Number of instructions simulated
sim_ops                                     658312285                       # Number of ops (including micro ops) simulated
system.voltage_domain.voltage                       1                       # Voltage in Volts
system.clk_domain.clock                          1000                       # Clock period in ticks
system.physmem.bytes_read::cpu00.inst           22528                       # Number of bytes read from this memory
system.physmem.bytes_read::cpu00.data           19712                       # Number of bytes read from this memory
system.physmem.bytes_read::cpu01.inst            3840                       # Number of bytes read from this memory
system.physmem.bytes_read::cpu01.data          331200                       # Number of bytes read from this memory
system.physmem.bytes_read::cpu02.inst            3648                       # Number of bytes read from this memory
system.physmem.bytes_read::cpu02.data          339904                       # Number of bytes read from this memory
system.physmem.bytes_read::cpu03.inst            3904                       # Number of bytes read from this memory
system.physmem.bytes_read::cpu03.data          341568                       # Number of bytes read from this memory
system.physmem.bytes_read::cpu04.inst            1600                       # Number of bytes read from this memory
system.physmem.bytes_read::cpu04.data          350080                       # Number of bytes read from this memory
system.physmem.bytes_read::cpu05.inst            1600                       # Number of bytes read from this memory
system.physmem.bytes_read::cpu05.data          272064                       # Number of bytes read from this memory
system.physmem.bytes_read::cpu06.inst             960                       # Number of bytes read from this memory
system.physmem.bytes_read::cpu06.data          268928                       # Number of bytes read from this memory
system.physmem.bytes_read::cpu07.inst            2432                       # Number of bytes read from this memory
system.physmem.bytes_read::cpu07.data          248128                       # Number of bytes read from this memory
system.physmem.bytes_read::cpu08.inst             192                       # Number of bytes read from this memory
system.physmem.bytes_read::cpu08.data          230336                       # Number of bytes read from this memory
system.physmem.bytes_read::cpu09.inst            1536                       # Number of bytes read from this memory
system.physmem.bytes_read::cpu09.data          260288                       # Number of bytes read from this memory
system.physmem.bytes_read::cpu10.inst            1216                       # Number of bytes read from this memory
system.physmem.bytes_read::cpu10.data          245248                       # Number of bytes read from this memory
system.physmem.bytes_read::cpu11.inst             512                       # Number of bytes read from this memory
system.physmem.bytes_read::cpu11.data          273408                       # Number of bytes read from this memory
system.physmem.bytes_read::cpu12.inst             384                       # Number of bytes read from this memory
system.physmem.bytes_read::cpu12.data          302400                       # Number of bytes read from this memory
system.physmem.bytes_read::cpu13.inst             384                       # Number of bytes read from this memory
system.physmem.bytes_read::cpu13.data          249856                       # Number of bytes read from this memory
system.physmem.bytes_read::cpu14.inst             256                       # Number of bytes read from this memory
system.physmem.bytes_read::cpu14.data          279616                       # Number of bytes read from this memory
system.physmem.bytes_read::cpu15.inst            1216                       # Number of bytes read from this memory
system.physmem.bytes_read::cpu15.data          250816                       # Number of bytes read from this memory
system.physmem.bytes_read::cpu16.inst            1216                       # Number of bytes read from this memory
system.physmem.bytes_read::cpu16.data          247680                       # Number of bytes read from this memory
system.physmem.bytes_read::total              4558656                       # Number of bytes read from this memory
system.physmem.bytes_inst_read::cpu00.inst        22528                       # Number of instructions bytes read from this memory
system.physmem.bytes_inst_read::cpu01.inst         3840                       # Number of instructions bytes read from this memory
system.physmem.bytes_inst_read::cpu02.inst         3648                       # Number of instructions bytes read from this memory
system.physmem.bytes_inst_read::cpu03.inst         3904                       # Number of instructions bytes read from this memory
system.physmem.bytes_inst_read::cpu04.inst         1600                       # Number of instructions bytes read from this memory
system.physmem.bytes_inst_read::cpu05.inst         1600                       # Number of instructions bytes read from this memory
system.physmem.bytes_inst_read::cpu06.inst          960                       # Number of instructions bytes read from this memory
system.physmem.bytes_inst_read::cpu07.inst         2432                       # Number of instructions bytes read from this memory
system.physmem.bytes_inst_read::cpu08.inst          192                       # Number of instructions bytes read from this memory
system.physmem.bytes_inst_read::cpu09.inst         1536                       # Number of instructions bytes read from this memory
system.physmem.bytes_inst_read::cpu10.inst         1216                       # Number of instructions bytes read from this memory
system.physmem.bytes_inst_read::cpu11.inst          512                       # Number of instructions bytes read from this memory
system.physmem.bytes_inst_read::cpu12.inst          384                       # Number of instructions bytes read from this memory
system.physmem.bytes_inst_read::cpu13.inst          384                       # Number of instructions bytes read from this memory
system.physmem.bytes_inst_read::cpu14.inst          256                       # Number of instructions bytes read from this memory
system.physmem.bytes_inst_read::cpu15.inst         1216                       # Number of instructions bytes read from this memory
system.physmem.bytes_inst_read::cpu16.inst         1216                       # Number of instructions bytes read from this memory
system.physmem.bytes_inst_read::total           47424                       # Number of instructions bytes read from this memory
system.physmem.bytes_written::writebacks        52480                       # Number of bytes written to this memory
system.physmem.bytes_written::total             52480                       # Number of bytes written to this memory
system.physmem.num_reads::cpu00.inst              352                       # Number of read requests responded to by this memory
system.physmem.num_reads::cpu00.data              308                       # Number of read requests responded to by this memory
system.physmem.num_reads::cpu01.inst               60                       # Number of read requests responded to by this memory
system.physmem.num_reads::cpu01.data             5175                       # Number of read requests responded to by this memory
system.physmem.num_reads::cpu02.inst               57                       # Number of read requests responded to by this memory
system.physmem.num_reads::cpu02.data             5311                       # Number of read requests responded to by this memory
system.physmem.num_reads::cpu03.inst               61                       # Number of read requests responded to by this memory
system.physmem.num_reads::cpu03.data             5337                       # Number of read requests responded to by this memory
system.physmem.num_reads::cpu04.inst               25                       # Number of read requests responded to by this memory
system.physmem.num_reads::cpu04.data             5470                       # Number of read requests responded to by this memory
system.physmem.num_reads::cpu05.inst               25                       # Number of read requests responded to by this memory
system.physmem.num_reads::cpu05.data             4251                       # Number of read requests responded to by this memory
system.physmem.num_reads::cpu06.inst               15                       # Number of read requests responded to by this memory
system.physmem.num_reads::cpu06.data             4202                       # Number of read requests responded to by this memory
system.physmem.num_reads::cpu07.inst               38                       # Number of read requests responded to by this memory
system.physmem.num_reads::cpu07.data             3877                       # Number of read requests responded to by this memory
system.physmem.num_reads::cpu08.inst                3                       # Number of read requests responded to by this memory
system.physmem.num_reads::cpu08.data             3599                       # Number of read requests responded to by this memory
system.physmem.num_reads::cpu09.inst               24                       # Number of read requests responded to by this memory
system.physmem.num_reads::cpu09.data             4067                       # Number of read requests responded to by this memory
system.physmem.num_reads::cpu10.inst               19                       # Number of read requests responded to by this memory
system.physmem.num_reads::cpu10.data             3832                       # Number of read requests responded to by this memory
system.physmem.num_reads::cpu11.inst                8                       # Number of read requests responded to by this memory
system.physmem.num_reads::cpu11.data             4272                       # Number of read requests responded to by this memory
system.physmem.num_reads::cpu12.inst                6                       # Number of read requests responded to by this memory
system.physmem.num_reads::cpu12.data             4725                       # Number of read requests responded to by this memory
system.physmem.num_reads::cpu13.inst                6                       # Number of read requests responded to by this memory
system.physmem.num_reads::cpu13.data             3904                       # Number of read requests responded to by this memory
system.physmem.num_reads::cpu14.inst                4                       # Number of read requests responded to by this memory
system.physmem.num_reads::cpu14.data             4369                       # Number of read requests responded to by this memory
system.physmem.num_reads::cpu15.inst               19                       # Number of read requests responded to by this memory
system.physmem.num_reads::cpu15.data             3919                       # Number of read requests responded to by this memory
system.physmem.num_reads::cpu16.inst               19                       # Number of read requests responded to by this memory
system.physmem.num_reads::cpu16.data             3870                       # Number of read requests responded to by this memory
system.physmem.num_reads::total                 71229                       # Number of read requests responded to by this memory
system.physmem.num_writes::writebacks             820                       # Number of write requests responded to by this memory
system.physmem.num_writes::total                  820                       # Number of write requests responded to by this memory
system.physmem.bw_read::cpu00.inst             267840                       # Total read bandwidth from this memory (bytes/s)
system.physmem.bw_read::cpu00.data             234360                       # Total read bandwidth from this memory (bytes/s)
system.physmem.bw_read::cpu01.inst              45655                       # Total read bandwidth from this memory (bytes/s)
system.physmem.bw_read::cpu01.data            3937708                       # Total read bandwidth from this memory (bytes/s)
system.physmem.bw_read::cpu02.inst              43372                       # Total read bandwidth from this memory (bytes/s)
system.physmem.bw_read::cpu02.data            4041192                       # Total read bandwidth from this memory (bytes/s)
system.physmem.bw_read::cpu03.inst              46415                       # Total read bandwidth from this memory (bytes/s)
system.physmem.bw_read::cpu03.data            4060976                       # Total read bandwidth from this memory (bytes/s)
system.physmem.bw_read::cpu04.inst              19023                       # Total read bandwidth from this memory (bytes/s)
system.physmem.bw_read::cpu04.data            4162177                       # Total read bandwidth from this memory (bytes/s)
system.physmem.bw_read::cpu05.inst              19023                       # Total read bandwidth from this memory (bytes/s)
system.physmem.bw_read::cpu05.data            3234628                       # Total read bandwidth from this memory (bytes/s)
system.physmem.bw_read::cpu06.inst              11414                       # Total read bandwidth from this memory (bytes/s)
system.physmem.bw_read::cpu06.data            3197343                       # Total read bandwidth from this memory (bytes/s)
system.physmem.bw_read::cpu07.inst              28915                       # Total read bandwidth from this memory (bytes/s)
system.physmem.bw_read::cpu07.data            2950047                       # Total read bandwidth from this memory (bytes/s)
system.physmem.bw_read::cpu08.inst               2283                       # Total read bandwidth from this memory (bytes/s)
system.physmem.bw_read::cpu08.data            2738514                       # Total read bandwidth from this memory (bytes/s)
system.physmem.bw_read::cpu09.inst              18262                       # Total read bandwidth from this memory (bytes/s)
system.physmem.bw_read::cpu09.data            3094620                       # Total read bandwidth from this memory (bytes/s)
system.physmem.bw_read::cpu10.inst              14457                       # Total read bandwidth from this memory (bytes/s)
system.physmem.bw_read::cpu10.data            2915806                       # Total read bandwidth from this memory (bytes/s)
system.physmem.bw_read::cpu11.inst               6087                       # Total read bandwidth from this memory (bytes/s)
system.physmem.bw_read::cpu11.data            3250607                       # Total read bandwidth from this memory (bytes/s)
system.physmem.bw_read::cpu12.inst               4565                       # Total read bandwidth from this memory (bytes/s)
system.physmem.bw_read::cpu12.data            3595299                       # Total read bandwidth from this memory (bytes/s)
system.physmem.bw_read::cpu13.inst               4565                       # Total read bandwidth from this memory (bytes/s)
system.physmem.bw_read::cpu13.data            2970592                       # Total read bandwidth from this memory (bytes/s)
system.physmem.bw_read::cpu14.inst               3044                       # Total read bandwidth from this memory (bytes/s)
system.physmem.bw_read::cpu14.data            3324415                       # Total read bandwidth from this memory (bytes/s)
system.physmem.bw_read::cpu15.inst              14457                       # Total read bandwidth from this memory (bytes/s)
system.physmem.bw_read::cpu15.data            2982006                       # Total read bandwidth from this memory (bytes/s)
system.physmem.bw_read::cpu16.inst              14457                       # Total read bandwidth from this memory (bytes/s)
system.physmem.bw_read::cpu16.data            2944721                       # Total read bandwidth from this memory (bytes/s)
system.physmem.bw_read::total                54198845                       # Total read bandwidth from this memory (bytes/s)
system.physmem.bw_inst_read::cpu00.inst        267840                       # Instruction read bandwidth from this memory (bytes/s)
system.physmem.bw_inst_read::cpu01.inst         45655                       # Instruction read bandwidth from this memory (bytes/s)
system.physmem.bw_inst_read::cpu02.inst         43372                       # Instruction read bandwidth from this memory (bytes/s)
system.physmem.bw_inst_read::cpu03.inst         46415                       # Instruction read bandwidth from this memory (bytes/s)
system.physmem.bw_inst_read::cpu04.inst         19023                       # Instruction read bandwidth from this memory (bytes/s)
system.physmem.bw_inst_read::cpu05.inst         19023                       # Instruction read bandwidth from this memory (bytes/s)
system.physmem.bw_inst_read::cpu06.inst         11414                       # Instruction read bandwidth from this memory (bytes/s)
system.physmem.bw_inst_read::cpu07.inst         28915                       # Instruction read bandwidth from this memory (bytes/s)
system.physmem.bw_inst_read::cpu08.inst          2283                       # Instruction read bandwidth from this memory (bytes/s)
system.physmem.bw_inst_read::cpu09.inst         18262                       # Instruction read bandwidth from this memory (bytes/s)
system.physmem.bw_inst_read::cpu10.inst         14457                       # Instruction read bandwidth from this memory (bytes/s)
system.physmem.bw_inst_read::cpu11.inst          6087                       # Instruction read bandwidth from this memory (bytes/s)
system.physmem.bw_inst_read::cpu12.inst          4565                       # Instruction read bandwidth from this memory (bytes/s)
system.physmem.bw_inst_read::cpu13.inst          4565                       # Instruction read bandwidth from this memory (bytes/s)
system.physmem.bw_inst_read::cpu14.inst          3044                       # Instruction read bandwidth from this memory (bytes/s)
system.physmem.bw_inst_read::cpu15.inst         14457                       # Instruction read bandwidth from this memory (bytes/s)
system.physmem.bw_inst_read::cpu16.inst         14457                       # Instruction read bandwidth from this memory (bytes/s)
system.physmem.bw_inst_read::total             563834                       # Instruction read bandwidth from this memory (bytes/s)
system.physmem.bw_write::writebacks            623946                       # Write bandwidth from this memory (bytes/s)
system.physmem.bw_write::total                 623946                       # Write bandwidth from this memory (bytes/s)
system.physmem.bw_total::writebacks            623946                       # Total bandwidth to/from this memory (bytes/s)
system.physmem.bw_total::cpu00.inst            267840                       # Total bandwidth to/from this memory (bytes/s)
system.physmem.bw_total::cpu00.data            234360                       # Total bandwidth to/from this memory (bytes/s)
system.physmem.bw_total::cpu01.inst             45655                       # Total bandwidth to/from this memory (bytes/s)
system.physmem.bw_total::cpu01.data           3937708                       # Total bandwidth to/from this memory (bytes/s)
system.physmem.bw_total::cpu02.inst             43372                       # Total bandwidth to/from this memory (bytes/s)
system.physmem.bw_total::cpu02.data           4041192                       # Total bandwidth to/from this memory (bytes/s)
system.physmem.bw_total::cpu03.inst             46415                       # Total bandwidth to/from this memory (bytes/s)
system.physmem.bw_total::cpu03.data           4060976                       # Total bandwidth to/from this memory (bytes/s)
system.physmem.bw_total::cpu04.inst             19023                       # Total bandwidth to/from this memory (bytes/s)
system.physmem.bw_total::cpu04.data           4162177                       # Total bandwidth to/from this memory (bytes/s)
system.physmem.bw_total::cpu05.inst             19023                       # Total bandwidth to/from this memory (bytes/s)
system.physmem.bw_total::cpu05.data           3234628                       # Total bandwidth to/from this memory (bytes/s)
system.physmem.bw_total::cpu06.inst             11414                       # Total bandwidth to/from this memory (bytes/s)
system.physmem.bw_total::cpu06.data           3197343                       # Total bandwidth to/from this memory (bytes/s)
system.physmem.bw_total::cpu07.inst             28915                       # Total bandwidth to/from this memory (bytes/s)
system.physmem.bw_total::cpu07.data           2950047                       # Total bandwidth to/from this memory (bytes/s)
system.physmem.bw_total::cpu08.inst              2283                       # Total bandwidth to/from this memory (bytes/s)
system.physmem.bw_total::cpu08.data           2738514                       # Total bandwidth to/from this memory (bytes/s)
system.physmem.bw_total::cpu09.inst             18262                       # Total bandwidth to/from this memory (bytes/s)
system.physmem.bw_total::cpu09.data           3094620                       # Total bandwidth to/from this memory (bytes/s)
system.physmem.bw_total::cpu10.inst             14457                       # Total bandwidth to/from this memory (bytes/s)
system.physmem.bw_total::cpu10.data           2915806                       # Total bandwidth to/from this memory (bytes/s)
system.physmem.bw_total::cpu11.inst              6087                       # Total bandwidth to/from this memory (bytes/s)
system.physmem.bw_total::cpu11.data           3250607                       # Total bandwidth to/from this memory (bytes/s)
system.physmem.bw_total::cpu12.inst              4565                       # Total bandwidth to/from this memory (bytes/s)
system.physmem.bw_total::cpu12.data           3595299                       # Total bandwidth to/from this memory (bytes/s)
system.physmem.bw_total::cpu13.inst              4565                       # Total bandwidth to/from this memory (bytes/s)
system.physmem.bw_total::cpu13.data           2970592                       # Total bandwidth to/from this memory (bytes/s)
system.physmem.bw_total::cpu14.inst              3044                       # Total bandwidth to/from this memory (bytes/s)
system.physmem.bw_total::cpu14.data           3324415                       # Total bandwidth to/from this memory (bytes/s)
system.physmem.bw_total::cpu15.inst             14457                       # Total bandwidth to/from this memory (bytes/s)
system.physmem.bw_total::cpu15.data           2982006                       # Total bandwidth to/from this memory (bytes/s)
system.physmem.bw_total::cpu16.inst             14457                       # Total bandwidth to/from this memory (bytes/s)
system.physmem.bw_total::cpu16.data           2944721                       # Total bandwidth to/from this memory (bytes/s)
system.physmem.bw_total::total               54822791                       # Total bandwidth to/from this memory (bytes/s)
system.cpu00.branchPred.lookups              42042564                       # Number of BP lookups
system.cpu00.branchPred.condPredicted        42041107                       # Number of conditional branches predicted
system.cpu00.branchPred.condIncorrect             818                       # Number of conditional branches incorrect
system.cpu00.branchPred.BTBLookups           42039888                       # Number of BTB lookups
system.cpu00.branchPred.BTBHits              42039423                       # Number of BTB hits
system.cpu00.branchPred.BTBCorrect                  0                       # Number of correct BTB predictions (this stat may not work properly.
system.cpu00.branchPred.BTBHitPct           99.998894                       # BTB Hit Percentage
system.cpu00.branchPred.usedRAS                   544                       # Number of times the RAS was used to get a target.
system.cpu00.branchPred.RASInCorrect               55                       # Number of incorrect RAS predictions.
system.cpu00.dstage2_mmu.stage2_tlb.walker.walks            0                       # Table walker walks requested
system.cpu00.dstage2_mmu.stage2_tlb.walker.walkRequestOrigin_Requested::Data            0                       # Table walker requests started/completed, data/inst
system.cpu00.dstage2_mmu.stage2_tlb.walker.walkRequestOrigin_Requested::Inst            0                       # Table walker requests started/completed, data/inst
system.cpu00.dstage2_mmu.stage2_tlb.walker.walkRequestOrigin_Requested::total            0                       # Table walker requests started/completed, data/inst
system.cpu00.dstage2_mmu.stage2_tlb.walker.walkRequestOrigin_Completed::Data            0                       # Table walker requests started/completed, data/inst
system.cpu00.dstage2_mmu.stage2_tlb.walker.walkRequestOrigin_Completed::Inst            0                       # Table walker requests started/completed, data/inst
system.cpu00.dstage2_mmu.stage2_tlb.walker.walkRequestOrigin_Completed::total            0                       # Table walker requests started/completed, data/inst
system.cpu00.dstage2_mmu.stage2_tlb.walker.walkRequestOrigin::total            0                       # Table walker requests started/completed, data/inst
system.cpu00.dstage2_mmu.stage2_tlb.inst_hits            0                       # ITB inst hits
system.cpu00.dstage2_mmu.stage2_tlb.inst_misses            0                       # ITB inst misses
system.cpu00.dstage2_mmu.stage2_tlb.read_hits            0                       # DTB read hits
system.cpu00.dstage2_mmu.stage2_tlb.read_misses            0                       # DTB read misses
system.cpu00.dstage2_mmu.stage2_tlb.write_hits            0                       # DTB write hits
system.cpu00.dstage2_mmu.stage2_tlb.write_misses            0                       # DTB write misses
system.cpu00.dstage2_mmu.stage2_tlb.flush_tlb            0                       # Number of times complete TLB was flushed
system.cpu00.dstage2_mmu.stage2_tlb.flush_tlb_mva            0                       # Number of times TLB was flushed by MVA
system.cpu00.dstage2_mmu.stage2_tlb.flush_tlb_mva_asid            0                       # Number of times TLB was flushed by MVA & ASID
system.cpu00.dstage2_mmu.stage2_tlb.flush_tlb_asid            0                       # Number of times TLB was flushed by ASID
system.cpu00.dstage2_mmu.stage2_tlb.flush_entries            0                       # Number of entries that have been flushed from TLB
system.cpu00.dstage2_mmu.stage2_tlb.align_faults            0                       # Number of TLB faults due to alignment restrictions
system.cpu00.dstage2_mmu.stage2_tlb.prefetch_faults            0                       # Number of TLB faults due to prefetch
system.cpu00.dstage2_mmu.stage2_tlb.domain_faults            0                       # Number of TLB faults due to domain restrictions
system.cpu00.dstage2_mmu.stage2_tlb.perms_faults            0                       # Number of TLB faults due to permissions restrictions
system.cpu00.dstage2_mmu.stage2_tlb.read_accesses            0                       # DTB read accesses
system.cpu00.dstage2_mmu.stage2_tlb.write_accesses            0                       # DTB write accesses
system.cpu00.dstage2_mmu.stage2_tlb.inst_accesses            0                       # ITB inst accesses
system.cpu00.dstage2_mmu.stage2_tlb.hits            0                       # DTB hits
system.cpu00.dstage2_mmu.stage2_tlb.misses            0                       # DTB misses
system.cpu00.dstage2_mmu.stage2_tlb.accesses            0                       # DTB accesses
system.cpu00.dtb.walker.walks                       0                       # Table walker walks requested
system.cpu00.dtb.walker.walkRequestOrigin_Requested::Data            0                       # Table walker requests started/completed, data/inst
system.cpu00.dtb.walker.walkRequestOrigin_Requested::Inst            0                       # Table walker requests started/completed, data/inst
system.cpu00.dtb.walker.walkRequestOrigin_Requested::total            0                       # Table walker requests started/completed, data/inst
system.cpu00.dtb.walker.walkRequestOrigin_Completed::Data            0                       # Table walker requests started/completed, data/inst
system.cpu00.dtb.walker.walkRequestOrigin_Completed::Inst            0                       # Table walker requests started/completed, data/inst
system.cpu00.dtb.walker.walkRequestOrigin_Completed::total            0                       # Table walker requests started/completed, data/inst
system.cpu00.dtb.walker.walkRequestOrigin::total            0                       # Table walker requests started/completed, data/inst
system.cpu00.dtb.inst_hits                          0                       # ITB inst hits
system.cpu00.dtb.inst_misses                        0                       # ITB inst misses
system.cpu00.dtb.read_hits                          0                       # DTB read hits
system.cpu00.dtb.read_misses                        0                       # DTB read misses
system.cpu00.dtb.write_hits                         0                       # DTB write hits
system.cpu00.dtb.write_misses                       0                       # DTB write misses
system.cpu00.dtb.flush_tlb                          0                       # Number of times complete TLB was flushed
system.cpu00.dtb.flush_tlb_mva                      0                       # Number of times TLB was flushed by MVA
system.cpu00.dtb.flush_tlb_mva_asid                 0                       # Number of times TLB was flushed by MVA & ASID
system.cpu00.dtb.flush_tlb_asid                     0                       # Number of times TLB was flushed by ASID
system.cpu00.dtb.flush_entries                      0                       # Number of entries that have been flushed from TLB
system.cpu00.dtb.align_faults                       0                       # Number of TLB faults due to alignment restrictions
system.cpu00.dtb.prefetch_faults                    0                       # Number of TLB faults due to prefetch
system.cpu00.dtb.domain_faults                      0                       # Number of TLB faults due to domain restrictions
system.cpu00.dtb.perms_faults                       0                       # Number of TLB faults due to permissions restrictions
system.cpu00.dtb.read_accesses                      0                       # DTB read accesses
system.cpu00.dtb.write_accesses                     0                       # DTB write accesses
system.cpu00.dtb.inst_accesses                      0                       # ITB inst accesses
system.cpu00.dtb.hits                               0                       # DTB hits
system.cpu00.dtb.misses                             0                       # DTB misses
system.cpu00.dtb.accesses                           0                       # DTB accesses
system.cpu00.istage2_mmu.stage2_tlb.walker.walks            0                       # Table walker walks requested
system.cpu00.istage2_mmu.stage2_tlb.walker.walkRequestOrigin_Requested::Data            0                       # Table walker requests started/completed, data/inst
system.cpu00.istage2_mmu.stage2_tlb.walker.walkRequestOrigin_Requested::Inst            0                       # Table walker requests started/completed, data/inst
system.cpu00.istage2_mmu.stage2_tlb.walker.walkRequestOrigin_Requested::total            0                       # Table walker requests started/completed, data/inst
system.cpu00.istage2_mmu.stage2_tlb.walker.walkRequestOrigin_Completed::Data            0                       # Table walker requests started/completed, data/inst
system.cpu00.istage2_mmu.stage2_tlb.walker.walkRequestOrigin_Completed::Inst            0                       # Table walker requests started/completed, data/inst
system.cpu00.istage2_mmu.stage2_tlb.walker.walkRequestOrigin_Completed::total            0                       # Table walker requests started/completed, data/inst
system.cpu00.istage2_mmu.stage2_tlb.walker.walkRequestOrigin::total            0                       # Table walker requests started/completed, data/inst
system.cpu00.istage2_mmu.stage2_tlb.inst_hits            0                       # ITB inst hits
system.cpu00.istage2_mmu.stage2_tlb.inst_misses            0                       # ITB inst misses
system.cpu00.istage2_mmu.stage2_tlb.read_hits            0                       # DTB read hits
system.cpu00.istage2_mmu.stage2_tlb.read_misses            0                       # DTB read misses
system.cpu00.istage2_mmu.stage2_tlb.write_hits            0                       # DTB write hits
system.cpu00.istage2_mmu.stage2_tlb.write_misses            0                       # DTB write misses
system.cpu00.istage2_mmu.stage2_tlb.flush_tlb            0                       # Number of times complete TLB was flushed
system.cpu00.istage2_mmu.stage2_tlb.flush_tlb_mva            0                       # Number of times TLB was flushed by MVA
system.cpu00.istage2_mmu.stage2_tlb.flush_tlb_mva_asid            0                       # Number of times TLB was flushed by MVA & ASID
system.cpu00.istage2_mmu.stage2_tlb.flush_tlb_asid            0                       # Number of times TLB was flushed by ASID
system.cpu00.istage2_mmu.stage2_tlb.flush_entries            0                       # Number of entries that have been flushed from TLB
system.cpu00.istage2_mmu.stage2_tlb.align_faults            0                       # Number of TLB faults due to alignment restrictions
system.cpu00.istage2_mmu.stage2_tlb.prefetch_faults            0                       # Number of TLB faults due to prefetch
system.cpu00.istage2_mmu.stage2_tlb.domain_faults            0                       # Number of TLB faults due to domain restrictions
system.cpu00.istage2_mmu.stage2_tlb.perms_faults            0                       # Number of TLB faults due to permissions restrictions
system.cpu00.istage2_mmu.stage2_tlb.read_accesses            0                       # DTB read accesses
system.cpu00.istage2_mmu.stage2_tlb.write_accesses            0                       # DTB write accesses
system.cpu00.istage2_mmu.stage2_tlb.inst_accesses            0                       # ITB inst accesses
system.cpu00.istage2_mmu.stage2_tlb.hits            0                       # DTB hits
system.cpu00.istage2_mmu.stage2_tlb.misses            0                       # DTB misses
system.cpu00.istage2_mmu.stage2_tlb.accesses            0                       # DTB accesses
system.cpu00.itb.walker.walks                       0                       # Table walker walks requested
system.cpu00.itb.walker.walkRequestOrigin_Requested::Data            0                       # Table walker requests started/completed, data/inst
system.cpu00.itb.walker.walkRequestOrigin_Requested::Inst            0                       # Table walker requests started/completed, data/inst
system.cpu00.itb.walker.walkRequestOrigin_Requested::total            0                       # Table walker requests started/completed, data/inst
system.cpu00.itb.walker.walkRequestOrigin_Completed::Data            0                       # Table walker requests started/completed, data/inst
system.cpu00.itb.walker.walkRequestOrigin_Completed::Inst            0                       # Table walker requests started/completed, data/inst
system.cpu00.itb.walker.walkRequestOrigin_Completed::total            0                       # Table walker requests started/completed, data/inst
system.cpu00.itb.walker.walkRequestOrigin::total            0                       # Table walker requests started/completed, data/inst
system.cpu00.itb.inst_hits                          0                       # ITB inst hits
system.cpu00.itb.inst_misses                        0                       # ITB inst misses
system.cpu00.itb.read_hits                          0                       # DTB read hits
system.cpu00.itb.read_misses                        0                       # DTB read misses
system.cpu00.itb.write_hits                         0                       # DTB write hits
system.cpu00.itb.write_misses                       0                       # DTB write misses
system.cpu00.itb.flush_tlb                          0                       # Number of times complete TLB was flushed
system.cpu00.itb.flush_tlb_mva                      0                       # Number of times TLB was flushed by MVA
system.cpu00.itb.flush_tlb_mva_asid                 0                       # Number of times TLB was flushed by MVA & ASID
system.cpu00.itb.flush_tlb_asid                     0                       # Number of times TLB was flushed by ASID
system.cpu00.itb.flush_entries                      0                       # Number of entries that have been flushed from TLB
system.cpu00.itb.align_faults                       0                       # Number of TLB faults due to alignment restrictions
system.cpu00.itb.prefetch_faults                    0                       # Number of TLB faults due to prefetch
system.cpu00.itb.domain_faults                      0                       # Number of TLB faults due to domain restrictions
system.cpu00.itb.perms_faults                       0                       # Number of TLB faults due to permissions restrictions
system.cpu00.itb.read_accesses                      0                       # DTB read accesses
system.cpu00.itb.write_accesses                     0                       # DTB write accesses
system.cpu00.itb.inst_accesses                      0                       # ITB inst accesses
system.cpu00.itb.hits                               0                       # DTB hits
system.cpu00.itb.misses                             0                       # DTB misses
system.cpu00.itb.accesses                           0                       # DTB accesses
system.cpu00.workload.num_syscalls            1023393                       # Number of system calls
system.cpu00.numCycles                       84109837                       # number of cpu cycles simulated
system.cpu00.numWorkItemsStarted                    0                       # number of work items this cpu started
system.cpu00.numWorkItemsCompleted                  0                       # number of work items this cpu completed
system.cpu00.fetch.icacheStallCycles             9295                       # Number of cycles fetch is stalled on an Icache miss
system.cpu00.fetch.Insts                    210214289                       # Number of instructions fetch has processed
system.cpu00.fetch.Branches                  42042564                       # Number of branches that fetch encountered
system.cpu00.fetch.predictedBranches         42039967                       # Number of branches that fetch has predicted taken
system.cpu00.fetch.Cycles                    84091245                       # Number of cycles fetch has run and was not squashing or blocked
system.cpu00.fetch.SquashCycles                  2075                       # Number of cycles fetch has spent squashing
system.cpu00.fetch.PendingTrapStallCycles          167                       # Number of stall cycles due to pending traps
system.cpu00.fetch.CacheLines                    2872                       # Number of cache lines fetched
system.cpu00.fetch.IcacheSquashes                 284                       # Number of outstanding Icache misses that were squashed
system.cpu00.fetch.rateDist::samples         84101744                       # Number of instructions fetched each cycle (Total)
system.cpu00.fetch.rateDist::mean            2.499594                       # Number of instructions fetched each cycle (Total)
system.cpu00.fetch.rateDist::stdev           0.501063                       # Number of instructions fetched each cycle (Total)
system.cpu00.fetch.rateDist::underflows             0      0.00%      0.00% # Number of instructions fetched each cycle (Total)
system.cpu00.fetch.rateDist::0                  14633      0.02%      0.02% # Number of instructions fetched each cycle (Total)
system.cpu00.fetch.rateDist::1                    854      0.00%      0.02% # Number of instructions fetched each cycle (Total)
system.cpu00.fetch.rateDist::2               42039382     49.99%     50.00% # Number of instructions fetched each cycle (Total)
system.cpu00.fetch.rateDist::3               42046875     50.00%    100.00% # Number of instructions fetched each cycle (Total)
system.cpu00.fetch.rateDist::overflows              0      0.00%    100.00% # Number of instructions fetched each cycle (Total)
system.cpu00.fetch.rateDist::min_value              0                       # Number of instructions fetched each cycle (Total)
system.cpu00.fetch.rateDist::max_value              3                       # Number of instructions fetched each cycle (Total)
system.cpu00.fetch.rateDist::total           84101744                       # Number of instructions fetched each cycle (Total)
system.cpu00.fetch.branchRate                0.499853                       # Number of branch fetches per cycle
system.cpu00.fetch.rate                      2.499283                       # Number of inst fetches per cycle
system.cpu00.decode.IdleCycles                   8994                       # Number of cycles decode is idle
system.cpu00.decode.BlockedCycles                6717                       # Number of cycles decode is blocked
system.cpu00.decode.RunCycles                84084266                       # Number of cycles decode is running
system.cpu00.decode.UnblockCycles                 930                       # Number of cycles decode is unblocking
system.cpu00.decode.SquashCycles                  837                       # Number of cycles decode is squashing
system.cpu00.decode.BranchResolved                562                       # Number of times decode resolved a branch
system.cpu00.decode.BranchMispred                 214                       # Number of times decode detected a branch misprediction
system.cpu00.decode.DecodedInsts            210215897                       # Number of instructions handled by decode
system.cpu00.decode.SquashedInsts                 483                       # Number of squashed instructions handled by decode
system.cpu00.rename.SquashCycles                  837                       # Number of cycles rename is squashing
system.cpu00.rename.IdleCycles                   9892                       # Number of cycles rename is idle
system.cpu00.rename.BlockCycles                   818                       # Number of cycles rename is blocking
system.cpu00.rename.serializeStallCycles         3539                       # count of cycles rename stalled for serializing inst
system.cpu00.rename.RunCycles                84084203                       # Number of cycles rename is running
system.cpu00.rename.UnblockCycles                2455                       # Number of cycles rename is unblocking
system.cpu00.rename.RenamedInsts            210214240                       # Number of instructions processed by rename
system.cpu00.rename.IQFullEvents                    1                       # Number of times rename has blocked due to IQ full
system.cpu00.rename.SQFullEvents                 2331                       # Number of times rename has blocked due to SQ full
system.cpu00.rename.RenamedOperands         210216089                       # Number of destination operands rename has renamed
system.cpu00.rename.RenameLookups           966989585                       # Number of register rename lookups that rename has made
system.cpu00.rename.int_rename_lookups      210220128                       # Number of integer rename lookups
system.cpu00.rename.fp_rename_lookups              16                       # Number of floating rename lookups
system.cpu00.rename.CommittedMaps           210204045                       # Number of HB maps that are committed
system.cpu00.rename.UndoneMaps                  12044                       # Number of HB maps that are undone due to squashing
system.cpu00.rename.serializingInsts               76                       # count of serializing insts renamed
system.cpu00.rename.tempSerializingInsts           75                       # count of temporary serializing insts renamed
system.cpu00.rename.skidInsts                    1227                       # count of insts added to the skid buffer
system.cpu00.memDep0.insertedLoads           84079661                       # Number of loads inserted to the mem dependence unit.
system.cpu00.memDep0.insertedStores          42042563                       # Number of stores inserted to the mem dependence unit.
system.cpu00.memDep0.conflictingLoads        42037625                       # Number of conflicting loads.
system.cpu00.memDep0.conflictingStores       42037554                       # Number of conflicting stores.
system.cpu00.iq.iqInstsAdded                210211365                       # Number of instructions added to the IQ (excludes non-spec)
system.cpu00.iq.iqNonSpecInstsAdded                98                       # Number of non-speculative instructions added to the IQ
system.cpu00.iq.iqInstsIssued               210208180                       # Number of instructions issued
system.cpu00.iq.iqSquashedInstsIssued             701                       # Number of squashed instructions issued
system.cpu00.iq.iqSquashedInstsExamined          8241                       # Number of squashed instructions iterated over during squash; mainly for profiling
system.cpu00.iq.iqSquashedOperandsExamined        19847                       # Number of squashed operands that are examined and possibly removed from graph
system.cpu00.iq.iqSquashedNonSpecRemoved            5                       # Number of squashed non-spec instructions that were removed
system.cpu00.iq.issued_per_cycle::samples     84101744                       # Number of insts issued each cycle
system.cpu00.iq.issued_per_cycle::mean       2.499451                       # Number of insts issued each cycle
system.cpu00.iq.issued_per_cycle::stdev      0.707956                       # Number of insts issued each cycle
system.cpu00.iq.issued_per_cycle::underflows            0      0.00%      0.00% # Number of insts issued each cycle
system.cpu00.iq.issued_per_cycle::0             16733      0.02%      0.02% # Number of insts issued each cycle
system.cpu00.iq.issued_per_cycle::1          10513072     12.50%     12.52% # Number of insts issued each cycle
system.cpu00.iq.issued_per_cycle::2          21020709     24.99%     37.51% # Number of insts issued each cycle
system.cpu00.iq.issued_per_cycle::3          52551230     62.49%    100.00% # Number of insts issued each cycle
system.cpu00.iq.issued_per_cycle::overflows            0      0.00%    100.00% # Number of insts issued each cycle
system.cpu00.iq.issued_per_cycle::min_value            0                       # Number of insts issued each cycle
system.cpu00.iq.issued_per_cycle::max_value            3                       # Number of insts issued each cycle
system.cpu00.iq.issued_per_cycle::total      84101744                       # Number of insts issued each cycle
system.cpu00.iq.fu_full::No_OpClass                 0                       # attempts to use FU when none available
system.cpu00.iq.fu_full::IntAlu                     0                       # attempts to use FU when none available
system.cpu00.iq.fu_full::IntMult                    0                       # attempts to use FU when none available
system.cpu00.iq.fu_full::IntDiv                     0                       # attempts to use FU when none available
system.cpu00.iq.fu_full::FloatAdd                   0                       # attempts to use FU when none available
system.cpu00.iq.fu_full::FloatCmp                   0                       # attempts to use FU when none available
system.cpu00.iq.fu_full::FloatCvt                   0                       # attempts to use FU when none available
system.cpu00.iq.fu_full::FloatMult                  0                       # attempts to use FU when none available
system.cpu00.iq.fu_full::FloatDiv                   0                       # attempts to use FU when none available
system.cpu00.iq.fu_full::FloatSqrt                  0                       # attempts to use FU when none available
system.cpu00.iq.fu_full::SimdAdd                    0                       # attempts to use FU when none available
system.cpu00.iq.fu_full::SimdAddAcc                 0                       # attempts to use FU when none available
system.cpu00.iq.fu_full::SimdAlu                    0                       # attempts to use FU when none available
system.cpu00.iq.fu_full::SimdCmp                    0                       # attempts to use FU when none available
system.cpu00.iq.fu_full::SimdCvt                    0                       # attempts to use FU when none available
system.cpu00.iq.fu_full::SimdMisc                   0                       # attempts to use FU when none available
system.cpu00.iq.fu_full::SimdMult                   0                       # attempts to use FU when none available
system.cpu00.iq.fu_full::SimdMultAcc                0                       # attempts to use FU when none available
system.cpu00.iq.fu_full::SimdShift                  0                       # attempts to use FU when none available
system.cpu00.iq.fu_full::SimdShiftAcc               0                       # attempts to use FU when none available
system.cpu00.iq.fu_full::SimdSqrt                   0                       # attempts to use FU when none available
system.cpu00.iq.fu_full::SimdFloatAdd               0                       # attempts to use FU when none available
system.cpu00.iq.fu_full::SimdFloatAlu               0                       # attempts to use FU when none available
system.cpu00.iq.fu_full::SimdFloatCmp               0                       # attempts to use FU when none available
system.cpu00.iq.fu_full::SimdFloatCvt               0                       # attempts to use FU when none available
system.cpu00.iq.fu_full::SimdFloatDiv               0                       # attempts to use FU when none available
system.cpu00.iq.fu_full::SimdFloatMisc              0                       # attempts to use FU when none available
system.cpu00.iq.fu_full::SimdFloatMult              0                       # attempts to use FU when none available
system.cpu00.iq.fu_full::SimdFloatMultAcc            0                       # attempts to use FU when none available
system.cpu00.iq.fu_full::SimdFloatSqrt              0                       # attempts to use FU when none available
system.cpu00.iq.fu_full::MemRead                    0                       # attempts to use FU when none available
system.cpu00.iq.fu_full::MemWrite                   0                       # attempts to use FU when none available
system.cpu00.iq.fu_full::IprAccess                  0                       # attempts to use FU when none available
system.cpu00.iq.fu_full::InstPrefetch               0                       # attempts to use FU when none available
system.cpu00.iq.FU_type_0::No_OpClass               0      0.00%      0.00% # Type of FU issued
system.cpu00.iq.FU_type_0::IntAlu            84087062     40.00%     40.00% # Type of FU issued
system.cpu00.iq.FU_type_0::IntMult                  8      0.00%     40.00% # Type of FU issued
system.cpu00.iq.FU_type_0::IntDiv                   0      0.00%     40.00% # Type of FU issued
system.cpu00.iq.FU_type_0::FloatAdd                 0      0.00%     40.00% # Type of FU issued
system.cpu00.iq.FU_type_0::FloatCmp                 0      0.00%     40.00% # Type of FU issued
system.cpu00.iq.FU_type_0::FloatCvt                 0      0.00%     40.00% # Type of FU issued
system.cpu00.iq.FU_type_0::FloatMult                0      0.00%     40.00% # Type of FU issued
system.cpu00.iq.FU_type_0::FloatDiv                 0      0.00%     40.00% # Type of FU issued
system.cpu00.iq.FU_type_0::FloatSqrt                0      0.00%     40.00% # Type of FU issued
system.cpu00.iq.FU_type_0::SimdAdd                  0      0.00%     40.00% # Type of FU issued
system.cpu00.iq.FU_type_0::SimdAddAcc               0      0.00%     40.00% # Type of FU issued
system.cpu00.iq.FU_type_0::SimdAlu                  0      0.00%     40.00% # Type of FU issued
system.cpu00.iq.FU_type_0::SimdCmp                  0      0.00%     40.00% # Type of FU issued
system.cpu00.iq.FU_type_0::SimdCvt                  0      0.00%     40.00% # Type of FU issued
system.cpu00.iq.FU_type_0::SimdMisc                 0      0.00%     40.00% # Type of FU issued
system.cpu00.iq.FU_type_0::SimdMult                 0      0.00%     40.00% # Type of FU issued
system.cpu00.iq.FU_type_0::SimdMultAcc              0      0.00%     40.00% # Type of FU issued
system.cpu00.iq.FU_type_0::SimdShift                0      0.00%     40.00% # Type of FU issued
system.cpu00.iq.FU_type_0::SimdShiftAcc             0      0.00%     40.00% # Type of FU issued
system.cpu00.iq.FU_type_0::SimdSqrt                 0      0.00%     40.00% # Type of FU issued
system.cpu00.iq.FU_type_0::SimdFloatAdd             0      0.00%     40.00% # Type of FU issued
system.cpu00.iq.FU_type_0::SimdFloatAlu             0      0.00%     40.00% # Type of FU issued
system.cpu00.iq.FU_type_0::SimdFloatCmp             0      0.00%     40.00% # Type of FU issued
system.cpu00.iq.FU_type_0::SimdFloatCvt             0      0.00%     40.00% # Type of FU issued
system.cpu00.iq.FU_type_0::SimdFloatDiv             0      0.00%     40.00% # Type of FU issued
system.cpu00.iq.FU_type_0::SimdFloatMisc            3      0.00%     40.00% # Type of FU issued
system.cpu00.iq.FU_type_0::SimdFloatMult            0      0.00%     40.00% # Type of FU issued
system.cpu00.iq.FU_type_0::SimdFloatMultAcc            0      0.00%     40.00% # Type of FU issued
system.cpu00.iq.FU_type_0::SimdFloatSqrt            0      0.00%     40.00% # Type of FU issued
system.cpu00.iq.FU_type_0::MemRead           84078994     40.00%     80.00% # Type of FU issued
system.cpu00.iq.FU_type_0::MemWrite          42042113     20.00%    100.00% # Type of FU issued
system.cpu00.iq.FU_type_0::IprAccess                0      0.00%    100.00% # Type of FU issued
system.cpu00.iq.FU_type_0::InstPrefetch             0      0.00%    100.00% # Type of FU issued
system.cpu00.iq.FU_type_0::total            210208180                       # Type of FU issued
system.cpu00.iq.rate                         2.499210                       # Inst issue rate
system.cpu00.iq.fu_busy_cnt                         0                       # FU busy when requested
system.cpu00.iq.fu_busy_rate                        0                       # FU busy rate (busy events/executed inst)
system.cpu00.iq.int_inst_queue_reads        504518773                       # Number of integer instruction queue reads
system.cpu00.iq.int_inst_queue_writes       210219869                       # Number of integer instruction queue writes
system.cpu00.iq.int_inst_queue_wakeup_accesses    210206696                       # Number of integer instruction queue wakeup accesses
system.cpu00.iq.fp_inst_queue_reads                32                       # Number of floating instruction queue reads
system.cpu00.iq.fp_inst_queue_writes               16                       # Number of floating instruction queue writes
system.cpu00.iq.fp_inst_queue_wakeup_accesses           16                       # Number of floating instruction queue wakeup accesses
system.cpu00.iq.int_alu_accesses            210208164                       # Number of integer alu accesses
system.cpu00.iq.fp_alu_accesses                    16                       # Number of floating point alu accesses
system.cpu00.iew.lsq.thread0.forwLoads       42037987                       # Number of loads that had data forwarded from stores
system.cpu00.iew.lsq.thread0.invAddrLoads            0                       # Number of loads ignored due to an invalid address
system.cpu00.iew.lsq.thread0.squashedLoads         2347                       # Number of loads squashed
system.cpu00.iew.lsq.thread0.ignoredResponses            0                       # Number of memory responses ignored because the instruction is squashed
system.cpu00.iew.lsq.thread0.memOrderViolation          182                       # Number of memory ordering violations
system.cpu00.iew.lsq.thread0.squashedStores          938                       # Number of stores squashed
system.cpu00.iew.lsq.thread0.invAddrSwpfs            0                       # Number of software prefetches ignored due to an invalid address
system.cpu00.iew.lsq.thread0.blockedLoads            0                       # Number of blocked loads due to partial load-store forwarding
system.cpu00.iew.lsq.thread0.rescheduledLoads            8                       # Number of loads that were rescheduled
system.cpu00.iew.lsq.thread0.cacheBlocked            0                       # Number of times an access to memory failed due to the cache being blocked
system.cpu00.iew.iewIdleCycles                      0                       # Number of cycles IEW is idle
system.cpu00.iew.iewSquashCycles                  837                       # Number of cycles IEW is squashing
system.cpu00.iew.iewBlockCycles                   689                       # Number of cycles IEW is blocking
system.cpu00.iew.iewUnblockCycles                 131                       # Number of cycles IEW is unblocking
system.cpu00.iew.iewDispatchedInsts         210211485                       # Number of instructions dispatched to IQ
system.cpu00.iew.iewDispSquashedInsts             443                       # Number of squashed instructions skipped by dispatch
system.cpu00.iew.iewDispLoadInsts            84079661                       # Number of dispatched load instructions
system.cpu00.iew.iewDispStoreInsts           42042563                       # Number of dispatched store instructions
system.cpu00.iew.iewDispNonSpecInsts               72                       # Number of dispatched non-speculative instructions
system.cpu00.iew.iewIQFullEvents                    3                       # Number of times the IQ has become full, causing a stall
system.cpu00.iew.iewLSQFullEvents                   4                       # Number of times the LSQ has become full, causing a stall
system.cpu00.iew.memOrderViolationEvents          182                       # Number of memory order violations
system.cpu00.iew.predictedTakenIncorrect           81                       # Number of branches that were predicted taken incorrectly
system.cpu00.iew.predictedNotTakenIncorrect          570                       # Number of branches that were predicted not taken incorrectly
system.cpu00.iew.branchMispredicts                651                       # Number of branch mispredicts detected at execute
system.cpu00.iew.iewExecutedInsts           210207208                       # Number of executed instructions
system.cpu00.iew.iewExecLoadInsts            84078745                       # Number of load instructions executed
system.cpu00.iew.iewExecSquashedInsts             972                       # Number of squashed instructions skipped in execute
system.cpu00.iew.exec_swp                           0                       # number of swp insts executed
system.cpu00.iew.exec_nop                          22                       # number of nop insts executed
system.cpu00.iew.exec_refs                  126120603                       # number of memory reference insts executed
system.cpu00.iew.exec_branches               42040272                       # Number of branches executed
system.cpu00.iew.exec_stores                 42041858                       # Number of stores executed
system.cpu00.iew.exec_rate                   2.499199                       # Inst execution rate
system.cpu00.iew.wb_sent                    210206848                       # cumulative count of insts sent to commit
system.cpu00.iew.wb_count                   210206712                       # cumulative count of insts written-back
system.cpu00.iew.wb_producers               126121268                       # num instructions producing a value
system.cpu00.iew.wb_consumers               126132345                       # num instructions consuming a value
system.cpu00.iew.wb_penalized                       0                       # number of instrctions required to write to 'other' IQ
system.cpu00.iew.wb_rate                     2.499193                       # insts written-back per cycle
system.cpu00.iew.wb_fanout                   0.999912                       # average fanout of values written-back
system.cpu00.iew.wb_penalized_rate                  0                       # fraction of instructions written-back that wrote to 'other' IQ
system.cpu00.commit.commitSquashedInsts          8262                       # The number of squashed insts skipped by commit
system.cpu00.commit.commitNonSpecStalls            93                       # The number of times commit has been forced to stall to communicate backwards
system.cpu00.commit.branchMispredicts             618                       # The number of times a branch was mispredicted
system.cpu00.commit.committed_per_cycle::samples     84100291                       # Number of insts commited each cycle
system.cpu00.commit.committed_per_cycle::mean     2.499435                       # Number of insts commited each cycle
system.cpu00.commit.committed_per_cycle::stdev     1.581391                       # Number of insts commited each cycle
system.cpu00.commit.committed_per_cycle::underflows            0      0.00%      0.00% # Number of insts commited each cycle
system.cpu00.commit.committed_per_cycle::0        18169      0.02%      0.02% # Number of insts commited each cycle
system.cpu00.commit.committed_per_cycle::1     42040533     49.99%     50.01% # Number of insts commited each cycle
system.cpu00.commit.committed_per_cycle::2         1497      0.00%     50.01% # Number of insts commited each cycle
system.cpu00.commit.committed_per_cycle::3     10511330     12.50%     62.51% # Number of insts commited each cycle
system.cpu00.commit.committed_per_cycle::4     21018905     24.99%     87.50% # Number of insts commited each cycle
system.cpu00.commit.committed_per_cycle::5     10509455     12.50%    100.00% # Number of insts commited each cycle
system.cpu00.commit.committed_per_cycle::6          105      0.00%    100.00% # Number of insts commited each cycle
system.cpu00.commit.committed_per_cycle::7          196      0.00%    100.00% # Number of insts commited each cycle
system.cpu00.commit.committed_per_cycle::8          101      0.00%    100.00% # Number of insts commited each cycle
system.cpu00.commit.committed_per_cycle::overflows            0      0.00%    100.00% # Number of insts commited each cycle
system.cpu00.commit.committed_per_cycle::min_value            0                       # Number of insts commited each cycle
system.cpu00.commit.committed_per_cycle::max_value            8                       # Number of insts commited each cycle
system.cpu00.commit.committed_per_cycle::total     84100291                       # Number of insts commited each cycle
system.cpu00.commit.committedInsts          210199511                       # Number of instructions committed
system.cpu00.commit.committedOps            210203222                       # Number of ops (including micro ops) committed
system.cpu00.commit.swp_count                       0                       # Number of s/w prefetches committed
system.cpu00.commit.refs                    126118939                       # Number of memory references committed
system.cpu00.commit.loads                    84077314                       # Number of loads committed
system.cpu00.commit.membars                        26                       # Number of memory barriers committed
system.cpu00.commit.branches                 42039657                       # Number of branches committed
system.cpu00.commit.fp_insts                       16                       # Number of committed floating point instructions.
system.cpu00.commit.int_insts               168164051                       # Number of committed integer instructions.
system.cpu00.commit.function_calls                202                       # Number of function calls committed.
system.cpu00.commit.op_class_0::No_OpClass            0      0.00%      0.00% # Class of committed instruction
system.cpu00.commit.op_class_0::IntAlu       84084272     40.00%     40.00% # Class of committed instruction
system.cpu00.commit.op_class_0::IntMult             8      0.00%     40.00% # Class of committed instruction
system.cpu00.commit.op_class_0::IntDiv              0      0.00%     40.00% # Class of committed instruction
system.cpu00.commit.op_class_0::FloatAdd            0      0.00%     40.00% # Class of committed instruction
system.cpu00.commit.op_class_0::FloatCmp            0      0.00%     40.00% # Class of committed instruction
system.cpu00.commit.op_class_0::FloatCvt            0      0.00%     40.00% # Class of committed instruction
system.cpu00.commit.op_class_0::FloatMult            0      0.00%     40.00% # Class of committed instruction
system.cpu00.commit.op_class_0::FloatDiv            0      0.00%     40.00% # Class of committed instruction
system.cpu00.commit.op_class_0::FloatSqrt            0      0.00%     40.00% # Class of committed instruction
system.cpu00.commit.op_class_0::SimdAdd             0      0.00%     40.00% # Class of committed instruction
system.cpu00.commit.op_class_0::SimdAddAcc            0      0.00%     40.00% # Class of committed instruction
system.cpu00.commit.op_class_0::SimdAlu             0      0.00%     40.00% # Class of committed instruction
system.cpu00.commit.op_class_0::SimdCmp             0      0.00%     40.00% # Class of committed instruction
system.cpu00.commit.op_class_0::SimdCvt             0      0.00%     40.00% # Class of committed instruction
system.cpu00.commit.op_class_0::SimdMisc            0      0.00%     40.00% # Class of committed instruction
system.cpu00.commit.op_class_0::SimdMult            0      0.00%     40.00% # Class of committed instruction
system.cpu00.commit.op_class_0::SimdMultAcc            0      0.00%     40.00% # Class of committed instruction
system.cpu00.commit.op_class_0::SimdShift            0      0.00%     40.00% # Class of committed instruction
system.cpu00.commit.op_class_0::SimdShiftAcc            0      0.00%     40.00% # Class of committed instruction
system.cpu00.commit.op_class_0::SimdSqrt            0      0.00%     40.00% # Class of committed instruction
system.cpu00.commit.op_class_0::SimdFloatAdd            0      0.00%     40.00% # Class of committed instruction
system.cpu00.commit.op_class_0::SimdFloatAlu            0      0.00%     40.00% # Class of committed instruction
system.cpu00.commit.op_class_0::SimdFloatCmp            0      0.00%     40.00% # Class of committed instruction
system.cpu00.commit.op_class_0::SimdFloatCvt            0      0.00%     40.00% # Class of committed instruction
system.cpu00.commit.op_class_0::SimdFloatDiv            0      0.00%     40.00% # Class of committed instruction
system.cpu00.commit.op_class_0::SimdFloatMisc            3      0.00%     40.00% # Class of committed instruction
system.cpu00.commit.op_class_0::SimdFloatMult            0      0.00%     40.00% # Class of committed instruction
system.cpu00.commit.op_class_0::SimdFloatMultAcc            0      0.00%     40.00% # Class of committed instruction
system.cpu00.commit.op_class_0::SimdFloatSqrt            0      0.00%     40.00% # Class of committed instruction
system.cpu00.commit.op_class_0::MemRead      84077314     40.00%     80.00% # Class of committed instruction
system.cpu00.commit.op_class_0::MemWrite     42041625     20.00%    100.00% # Class of committed instruction
system.cpu00.commit.op_class_0::IprAccess            0      0.00%    100.00% # Class of committed instruction
system.cpu00.commit.op_class_0::InstPrefetch            0      0.00%    100.00% # Class of committed instruction
system.cpu00.commit.op_class_0::total       210203222                       # Class of committed instruction
system.cpu00.commit.bw_lim_events                 101                       # number cycles where commit BW limit reached
system.cpu00.rob.rob_reads                  294311153                       # The number of ROB reads
system.cpu00.rob.rob_writes                 420424425                       # The number of ROB writes
system.cpu00.timesIdled                           245                       # Number of times that the entire CPU went into an idle state and unscheduled itself
system.cpu00.idleCycles                          8093                       # Total number of cycles that the CPU has spent unscheduled due to idling
system.cpu00.committedInsts                 210199511                       # Number of Instructions Simulated
system.cpu00.committedOps                   210203222                       # Number of Ops (including micro ops) Simulated
system.cpu00.cpi                             0.400143                       # CPI: Cycles Per Instruction
system.cpu00.cpi_total                       0.400143                       # CPI: Total CPI of All Threads
system.cpu00.ipc                             2.499107                       # IPC: Instructions Per Cycle
system.cpu00.ipc_total                       2.499107                       # IPC: Total IPC of All Threads
system.cpu00.int_regfile_reads              210210397                       # number of integer regfile reads
system.cpu00.int_regfile_writes              84085983                       # number of integer regfile writes
system.cpu00.fp_regfile_reads                    2576                       # number of floating regfile reads
system.cpu00.cc_regfile_reads               882856362                       # number of cc regfile reads
system.cpu00.cc_regfile_writes              126121842                       # number of cc regfile writes
system.cpu00.misc_regfile_reads             130952791                       # number of misc regfile reads
system.cpu00.misc_regfile_writes                   54                       # number of misc regfile writes
system.cpu00.dcache.tags.replacements              56                       # number of replacements
system.cpu00.dcache.tags.tagsinuse         127.228163                       # Cycle average of tags in use
system.cpu00.dcache.tags.total_refs          84078996                       # Total number of references to valid blocks.
system.cpu00.dcache.tags.sampled_refs             207                       # Sample count of references to valid blocks.
system.cpu00.dcache.tags.avg_refs        406178.724638                       # Average number of references to valid blocks.
system.cpu00.dcache.tags.warmup_cycle               0                       # Cycle when the warmup percentage was hit.
system.cpu00.dcache.tags.occ_blocks::cpu00.data   127.228163                       # Average occupied blocks per requestor
system.cpu00.dcache.tags.occ_percent::cpu00.data     0.248493                       # Average percentage of cache occupancy
system.cpu00.dcache.tags.occ_percent::total     0.248493                       # Average percentage of cache occupancy
system.cpu00.dcache.tags.occ_task_id_blocks::1024          151                       # Occupied blocks per task id
system.cpu00.dcache.tags.age_task_id_blocks_1024::0           28                       # Occupied blocks per task id
system.cpu00.dcache.tags.age_task_id_blocks_1024::4          123                       # Occupied blocks per task id
system.cpu00.dcache.tags.occ_task_id_percent::1024     0.294922                       # Percentage of cache occupancy per task id
system.cpu00.dcache.tags.tag_accesses       168164577                       # Number of tag accesses
system.cpu00.dcache.tags.data_accesses      168164577                       # Number of data accesses
system.cpu00.dcache.ReadReq_hits::cpu00.data     42040280                       # number of ReadReq hits
system.cpu00.dcache.ReadReq_hits::total      42040280                       # number of ReadReq hits
system.cpu00.dcache.WriteReq_hits::cpu00.data     42039036                       # number of WriteReq hits
system.cpu00.dcache.WriteReq_hits::total     42039036                       # number of WriteReq hits
system.cpu00.dcache.LoadLockedReq_hits::cpu00.data           22                       # number of LoadLockedReq hits
system.cpu00.dcache.LoadLockedReq_hits::total           22                       # number of LoadLockedReq hits
system.cpu00.dcache.StoreCondReq_hits::cpu00.data           24                       # number of StoreCondReq hits
system.cpu00.dcache.StoreCondReq_hits::total           24                       # number of StoreCondReq hits
system.cpu00.dcache.demand_hits::cpu00.data     84079316                       # number of demand (read+write) hits
system.cpu00.dcache.demand_hits::total       84079316                       # number of demand (read+write) hits
system.cpu00.dcache.overall_hits::cpu00.data     84079316                       # number of overall hits
system.cpu00.dcache.overall_hits::total      84079316                       # number of overall hits
system.cpu00.dcache.ReadReq_misses::cpu00.data          235                       # number of ReadReq misses
system.cpu00.dcache.ReadReq_misses::total          235                       # number of ReadReq misses
system.cpu00.dcache.WriteReq_misses::cpu00.data         2504                       # number of WriteReq misses
system.cpu00.dcache.WriteReq_misses::total         2504                       # number of WriteReq misses
system.cpu00.dcache.LoadLockedReq_misses::cpu00.data            3                       # number of LoadLockedReq misses
system.cpu00.dcache.LoadLockedReq_misses::total            3                       # number of LoadLockedReq misses
system.cpu00.dcache.StoreCondReq_misses::cpu00.data            1                       # number of StoreCondReq misses
system.cpu00.dcache.StoreCondReq_misses::total            1                       # number of StoreCondReq misses
system.cpu00.dcache.demand_misses::cpu00.data         2739                       # number of demand (read+write) misses
system.cpu00.dcache.demand_misses::total         2739                       # number of demand (read+write) misses
system.cpu00.dcache.overall_misses::cpu00.data         2739                       # number of overall misses
system.cpu00.dcache.overall_misses::total         2739                       # number of overall misses
system.cpu00.dcache.ReadReq_miss_latency::cpu00.data     10229490                       # number of ReadReq miss cycles
system.cpu00.dcache.ReadReq_miss_latency::total     10229490                       # number of ReadReq miss cycles
system.cpu00.dcache.WriteReq_miss_latency::cpu00.data    123487000                       # number of WriteReq miss cycles
system.cpu00.dcache.WriteReq_miss_latency::total    123487000                       # number of WriteReq miss cycles
system.cpu00.dcache.LoadLockedReq_miss_latency::cpu00.data       133500                       # number of LoadLockedReq miss cycles
system.cpu00.dcache.LoadLockedReq_miss_latency::total       133500                       # number of LoadLockedReq miss cycles
system.cpu00.dcache.StoreCondReq_miss_latency::cpu00.data         7500                       # number of StoreCondReq miss cycles
system.cpu00.dcache.StoreCondReq_miss_latency::total         7500                       # number of StoreCondReq miss cycles
system.cpu00.dcache.demand_miss_latency::cpu00.data    133716490                       # number of demand (read+write) miss cycles
system.cpu00.dcache.demand_miss_latency::total    133716490                       # number of demand (read+write) miss cycles
system.cpu00.dcache.overall_miss_latency::cpu00.data    133716490                       # number of overall miss cycles
system.cpu00.dcache.overall_miss_latency::total    133716490                       # number of overall miss cycles
system.cpu00.dcache.ReadReq_accesses::cpu00.data     42040515                       # number of ReadReq accesses(hits+misses)
system.cpu00.dcache.ReadReq_accesses::total     42040515                       # number of ReadReq accesses(hits+misses)
system.cpu00.dcache.WriteReq_accesses::cpu00.data     42041540                       # number of WriteReq accesses(hits+misses)
system.cpu00.dcache.WriteReq_accesses::total     42041540                       # number of WriteReq accesses(hits+misses)
system.cpu00.dcache.LoadLockedReq_accesses::cpu00.data           25                       # number of LoadLockedReq accesses(hits+misses)
system.cpu00.dcache.LoadLockedReq_accesses::total           25                       # number of LoadLockedReq accesses(hits+misses)
system.cpu00.dcache.StoreCondReq_accesses::cpu00.data           25                       # number of StoreCondReq accesses(hits+misses)
system.cpu00.dcache.StoreCondReq_accesses::total           25                       # number of StoreCondReq accesses(hits+misses)
system.cpu00.dcache.demand_accesses::cpu00.data     84082055                       # number of demand (read+write) accesses
system.cpu00.dcache.demand_accesses::total     84082055                       # number of demand (read+write) accesses
system.cpu00.dcache.overall_accesses::cpu00.data     84082055                       # number of overall (read+write) accesses
system.cpu00.dcache.overall_accesses::total     84082055                       # number of overall (read+write) accesses
system.cpu00.dcache.ReadReq_miss_rate::cpu00.data     0.000006                       # miss rate for ReadReq accesses
system.cpu00.dcache.ReadReq_miss_rate::total     0.000006                       # miss rate for ReadReq accesses
system.cpu00.dcache.WriteReq_miss_rate::cpu00.data     0.000060                       # miss rate for WriteReq accesses
system.cpu00.dcache.WriteReq_miss_rate::total     0.000060                       # miss rate for WriteReq accesses
[...]
system.tol2bus.pkt_count_system.cpu10.dcache.mem_side::system.l2.cpu_side      1965290                       # Packet count per connected master and slave (bytes)
system.tol2bus.pkt_count_system.cpu11.icache.mem_side::system.l2.cpu_side         3804                       # Packet count per connected master and slave (bytes)
system.tol2bus.pkt_count_system.cpu11.dcache.mem_side::system.l2.cpu_side      1932871                       # Packet count per connected master and slave (bytes)
system.tol2bus.pkt_count_system.cpu12.icache.mem_side::system.l2.cpu_side         3610                       # Packet count per connected master and slave (bytes)
system.tol2bus.pkt_count_system.cpu12.dcache.mem_side::system.l2.cpu_side      1857172                       # Packet count per connected master and slave (bytes)
system.tol2bus.pkt_count_system.cpu13.icache.mem_side::system.l2.cpu_side         3466                       # Packet count per connected master and slave (bytes)
system.tol2bus.pkt_count_system.cpu13.dcache.mem_side::system.l2.cpu_side      1309584                       # Packet count per connected master and slave (bytes)
system.tol2bus.pkt_count_system.cpu14.icache.mem_side::system.l2.cpu_side         3471                       # Packet count per connected master and slave (bytes)
system.tol2bus.pkt_count_system.cpu14.dcache.mem_side::system.l2.cpu_side      1609858                       # Packet count per connected master and slave (bytes)
system.tol2bus.pkt_count_system.cpu15.icache.mem_side::system.l2.cpu_side         3452                       # Packet count per connected master and slave (bytes)
system.tol2bus.pkt_count_system.cpu15.dcache.mem_side::system.l2.cpu_side      1624987                       # Packet count per connected master and slave (bytes)
system.tol2bus.pkt_count_system.cpu16.icache.mem_side::system.l2.cpu_side         3564                       # Packet count per connected master and slave (bytes)
system.tol2bus.pkt_count_system.cpu16.dcache.mem_side::system.l2.cpu_side      1252299                       # Packet count per connected master and slave (bytes)
system.tol2bus.pkt_count::total              29012650                       # Packet count per connected master and slave (bytes)
system.tol2bus.pkt_size_system.cpu00.icache.mem_side::system.l2.cpu_side        24704                       # Cumulative packet size per connected master and slave (bytes)
system.tol2bus.pkt_size_system.cpu00.dcache.mem_side::system.l2.cpu_side        23872                       # Cumulative packet size per connected master and slave (bytes)
system.tol2bus.pkt_size_system.cpu01.icache.mem_side::system.l2.cpu_side       119232                       # Cumulative packet size per connected master and slave (bytes)
system.tol2bus.pkt_size_system.cpu01.dcache.mem_side::system.l2.cpu_side      1909888                       # Cumulative packet size per connected master and slave (bytes)
system.tol2bus.pkt_size_system.cpu02.icache.mem_side::system.l2.cpu_side       116800                       # Cumulative packet size per connected master and slave (bytes)
system.tol2bus.pkt_size_system.cpu02.dcache.mem_side::system.l2.cpu_side      1589440                       # Cumulative packet size per connected master and slave (bytes)
system.tol2bus.pkt_size_system.cpu03.icache.mem_side::system.l2.cpu_side       121600                       # Cumulative packet size per connected master and slave (bytes)
system.tol2bus.pkt_size_system.cpu03.dcache.mem_side::system.l2.cpu_side      1653312                       # Cumulative packet size per connected master and slave (bytes)
system.tol2bus.pkt_size_system.cpu04.icache.mem_side::system.l2.cpu_side       122112                       # Cumulative packet size per connected master and slave (bytes)
system.tol2bus.pkt_size_system.cpu04.dcache.mem_side::system.l2.cpu_side      1701952                       # Cumulative packet size per connected master and slave (bytes)
system.tol2bus.pkt_size_system.cpu05.icache.mem_side::system.l2.cpu_side       123584                       # Cumulative packet size per connected master and slave (bytes)
system.tol2bus.pkt_size_system.cpu05.dcache.mem_side::system.l2.cpu_side      1639360                       # Cumulative packet size per connected master and slave (bytes)
system.tol2bus.pkt_size_system.cpu06.icache.mem_side::system.l2.cpu_side       122624                       # Cumulative packet size per connected master and slave (bytes)
system.tol2bus.pkt_size_system.cpu06.dcache.mem_side::system.l2.cpu_side      1765696                       # Cumulative packet size per connected master and slave (bytes)
system.tol2bus.pkt_size_system.cpu07.icache.mem_side::system.l2.cpu_side       121280                       # Cumulative packet size per connected master and slave (bytes)
system.tol2bus.pkt_size_system.cpu07.dcache.mem_side::system.l2.cpu_side      1778112                       # Cumulative packet size per connected master and slave (bytes)
system.tol2bus.pkt_size_system.cpu08.icache.mem_side::system.l2.cpu_side       119616                       # Cumulative packet size per connected master and slave (bytes)
system.tol2bus.pkt_size_system.cpu08.dcache.mem_side::system.l2.cpu_side      1647424                       # Cumulative packet size per connected master and slave (bytes)
system.tol2bus.pkt_size_system.cpu09.icache.mem_side::system.l2.cpu_side       117888                       # Cumulative packet size per connected master and slave (bytes)
system.tol2bus.pkt_size_system.cpu09.dcache.mem_side::system.l2.cpu_side      1820736                       # Cumulative packet size per connected master and slave (bytes)
system.tol2bus.pkt_size_system.cpu10.icache.mem_side::system.l2.cpu_side       115968                       # Cumulative packet size per connected master and slave (bytes)
system.tol2bus.pkt_size_system.cpu10.dcache.mem_side::system.l2.cpu_side      1799104                       # Cumulative packet size per connected master and slave (bytes)
system.tol2bus.pkt_size_system.cpu11.icache.mem_side::system.l2.cpu_side       121728                       # Cumulative packet size per connected master and slave (bytes)
system.tol2bus.pkt_size_system.cpu11.dcache.mem_side::system.l2.cpu_side      1815168                       # Cumulative packet size per connected master and slave (bytes)
system.tol2bus.pkt_size_system.cpu12.icache.mem_side::system.l2.cpu_side       115520                       # Cumulative packet size per connected master and slave (bytes)
system.tol2bus.pkt_size_system.cpu12.dcache.mem_side::system.l2.cpu_side      2011072                       # Cumulative packet size per connected master and slave (bytes)
system.tol2bus.pkt_size_system.cpu13.icache.mem_side::system.l2.cpu_side       110912                       # Cumulative packet size per connected master and slave (bytes)
system.tol2bus.pkt_size_system.cpu13.dcache.mem_side::system.l2.cpu_side      1671552                       # Cumulative packet size per connected master and slave (bytes)
system.tol2bus.pkt_size_system.cpu14.icache.mem_side::system.l2.cpu_side       111040                       # Cumulative packet size per connected master and slave (bytes)
system.tol2bus.pkt_size_system.cpu14.dcache.mem_side::system.l2.cpu_side      1700736                       # Cumulative packet size per connected master and slave (bytes)
system.tol2bus.pkt_size_system.cpu15.icache.mem_side::system.l2.cpu_side       110464                       # Cumulative packet size per connected master and slave (bytes)
system.tol2bus.pkt_size_system.cpu15.dcache.mem_side::system.l2.cpu_side      1752576                       # Cumulative packet size per connected master and slave (bytes)
system.tol2bus.pkt_size_system.cpu16.icache.mem_side::system.l2.cpu_side       114048                       # Cumulative packet size per connected master and slave (bytes)
system.tol2bus.pkt_size_system.cpu16.dcache.mem_side::system.l2.cpu_side      1686016                       # Cumulative packet size per connected master and slave (bytes)
system.tol2bus.pkt_size::total               29875136                       # Cumulative packet size per connected master and slave (bytes)
system.tol2bus.snoops                        26588313                       # Total snoops (count)
system.tol2bus.snoop_fanout::samples         27809793                       # Request fanout histogram
system.tol2bus.snoop_fanout::mean                  33                       # Request fanout histogram
system.tol2bus.snoop_fanout::stdev                  0                       # Request fanout histogram
system.tol2bus.snoop_fanout::underflows             0      0.00%      0.00% # Request fanout histogram
system.tol2bus.snoop_fanout::0                      0      0.00%      0.00% # Request fanout histogram
system.tol2bus.snoop_fanout::1                      0      0.00%      0.00% # Request fanout histogram
system.tol2bus.snoop_fanout::2                      0      0.00%      0.00% # Request fanout histogram
system.tol2bus.snoop_fanout::3                      0      0.00%      0.00% # Request fanout histogram
system.tol2bus.snoop_fanout::4                      0      0.00%      0.00% # Request fanout histogram
system.tol2bus.snoop_fanout::5                      0      0.00%      0.00% # Request fanout histogram
system.tol2bus.snoop_fanout::6                      0      0.00%      0.00% # Request fanout histogram
system.tol2bus.snoop_fanout::7                      0      0.00%      0.00% # Request fanout histogram
system.tol2bus.snoop_fanout::8                      0      0.00%      0.00% # Request fanout histogram
system.tol2bus.snoop_fanout::9                      0      0.00%      0.00% # Request fanout histogram
system.tol2bus.snoop_fanout::10                     0      0.00%      0.00% # Request fanout histogram
system.tol2bus.snoop_fanout::11                     0      0.00%      0.00% # Request fanout histogram
system.tol2bus.snoop_fanout::12                     0      0.00%      0.00% # Request fanout histogram
system.tol2bus.snoop_fanout::13                     0      0.00%      0.00% # Request fanout histogram
system.tol2bus.snoop_fanout::14                     0      0.00%      0.00% # Request fanout histogram
system.tol2bus.snoop_fanout::15                     0      0.00%      0.00% # Request fanout histogram
system.tol2bus.snoop_fanout::16                     0      0.00%      0.00% # Request fanout histogram
system.tol2bus.snoop_fanout::17                     0      0.00%      0.00% # Request fanout histogram
system.tol2bus.snoop_fanout::18                     0      0.00%      0.00% # Request fanout histogram
system.tol2bus.snoop_fanout::19                     0      0.00%      0.00% # Request fanout histogram
system.tol2bus.snoop_fanout::20                     0      0.00%      0.00% # Request fanout histogram
system.tol2bus.snoop_fanout::21                     0      0.00%      0.00% # Request fanout histogram
system.tol2bus.snoop_fanout::22                     0      0.00%      0.00% # Request fanout histogram
system.tol2bus.snoop_fanout::23                     0      0.00%      0.00% # Request fanout histogram
system.tol2bus.snoop_fanout::24                     0      0.00%      0.00% # Request fanout histogram
system.tol2bus.snoop_fanout::25                     0      0.00%      0.00% # Request fanout histogram
system.tol2bus.snoop_fanout::26                     0      0.00%      0.00% # Request fanout histogram
system.tol2bus.snoop_fanout::27                     0      0.00%      0.00% # Request fanout histogram
system.tol2bus.snoop_fanout::28                     0      0.00%      0.00% # Request fanout histogram
system.tol2bus.snoop_fanout::29                     0      0.00%      0.00% # Request fanout histogram
system.tol2bus.snoop_fanout::30                     0      0.00%      0.00% # Request fanout histogram
system.tol2bus.snoop_fanout::31                     0      0.00%      0.00% # Request fanout histogram
system.tol2bus.snoop_fanout::32                     0      0.00%      0.00% # Request fanout histogram
system.tol2bus.snoop_fanout::33              27809793    100.00%    100.00% # Request fanout histogram
system.tol2bus.snoop_fanout::34                     0      0.00%    100.00% # Request fanout histogram
system.tol2bus.snoop_fanout::overflows              0      0.00%    100.00% # Request fanout histogram
system.tol2bus.snoop_fanout::min_value             33                       # Request fanout histogram
system.tol2bus.snoop_fanout::max_value             33                       # Request fanout histogram
system.tol2bus.snoop_fanout::total           27809793                       # Request fanout histogram
system.tol2bus.reqLayer0.occupancy        14048966734                       # Layer occupancy (ticks)
system.tol2bus.reqLayer0.utilization             16.7                       # Layer utilization (%)
system.tol2bus.respLayer0.occupancy            579998                       # Layer occupancy (ticks)
system.tol2bus.respLayer0.utilization             0.0                       # Layer utilization (%)
system.tol2bus.respLayer1.occupancy            556494                       # Layer occupancy (ticks)
system.tol2bus.respLayer1.utilization             0.0                       # Layer utilization (%)
system.tol2bus.respLayer4.occupancy           2822866                       # Layer occupancy (ticks)
system.tol2bus.respLayer4.utilization             0.0                       # Layer utilization (%)
system.tol2bus.respLayer5.occupancy        2824588204                       # Layer occupancy (ticks)
system.tol2bus.respLayer5.utilization             3.4                       # Layer utilization (%)
system.tol2bus.respLayer8.occupancy           2789297                       # Layer occupancy (ticks)
system.tol2bus.respLayer8.utilization             0.0                       # Layer utilization (%)
system.tol2bus.respLayer9.occupancy        3061186060                       # Layer occupancy (ticks)
system.tol2bus.respLayer9.utilization             3.6                       # Layer utilization (%)
system.tol2bus.respLayer12.occupancy          2889852                       # Layer occupancy (ticks)
system.tol2bus.respLayer12.utilization            0.0                       # Layer utilization (%)
system.tol2bus.respLayer13.occupancy       3249627963                       # Layer occupancy (ticks)
system.tol2bus.respLayer13.utilization            3.9                       # Layer utilization (%)
system.tol2bus.respLayer16.occupancy          2893383                       # Layer occupancy (ticks)
system.tol2bus.respLayer16.utilization            0.0                       # Layer utilization (%)
system.tol2bus.respLayer17.occupancy       3150741422                       # Layer occupancy (ticks)
system.tol2bus.respLayer17.utilization            3.7                       # Layer utilization (%)
system.tol2bus.respLayer20.occupancy          2899992                       # Layer occupancy (ticks)
system.tol2bus.respLayer20.utilization            0.0                       # Layer utilization (%)
system.tol2bus.respLayer21.occupancy       3237912501                       # Layer occupancy (ticks)
system.tol2bus.respLayer21.utilization            3.8                       # Layer utilization (%)
system.tol2bus.respLayer24.occupancy          2882978                       # Layer occupancy (ticks)
system.tol2bus.respLayer24.utilization            0.0                       # Layer utilization (%)
system.tol2bus.respLayer25.occupancy       3013640814                       # Layer occupancy (ticks)
system.tol2bus.respLayer25.utilization            3.6                       # Layer utilization (%)
system.tol2bus.respLayer28.occupancy          2856928                       # Layer occupancy (ticks)
system.tol2bus.respLayer28.utilization            0.0                       # Layer utilization (%)
system.tol2bus.respLayer29.occupancy       3094858760                       # Layer occupancy (ticks)
system.tol2bus.respLayer29.utilization            3.7                       # Layer utilization (%)
system.tol2bus.respLayer32.occupancy          2808489                       # Layer occupancy (ticks)
system.tol2bus.respLayer32.utilization            0.0                       # Layer utilization (%)
system.tol2bus.respLayer33.occupancy       3243572134                       # Layer occupancy (ticks)
system.tol2bus.respLayer33.utilization            3.9                       # Layer utilization (%)
system.tol2bus.respLayer36.occupancy          2767981                       # Layer occupancy (ticks)
system.tol2bus.respLayer36.utilization            0.0                       # Layer utilization (%)
system.tol2bus.respLayer37.occupancy       3219946296                       # Layer occupancy (ticks)
system.tol2bus.respLayer37.utilization            3.8                       # Layer utilization (%)
system.tol2bus.respLayer40.occupancy          2719997                       # Layer occupancy (ticks)
system.tol2bus.respLayer40.utilization            0.0                       # Layer utilization (%)
system.tol2bus.respLayer41.occupancy       3169741106                       # Layer occupancy (ticks)
system.tol2bus.respLayer41.utilization            3.8                       # Layer utilization (%)
system.tol2bus.respLayer44.occupancy          2854495                       # Layer occupancy (ticks)
system.tol2bus.respLayer44.utilization            0.0                       # Layer utilization (%)
system.tol2bus.respLayer45.occupancy       3103397013                       # Layer occupancy (ticks)
system.tol2bus.respLayer45.utilization            3.7                       # Layer utilization (%)
system.tol2bus.respLayer48.occupancy          2708498                       # Layer occupancy (ticks)
system.tol2bus.respLayer48.utilization            0.0                       # Layer utilization (%)
system.tol2bus.respLayer49.occupancy       2939165728                       # Layer occupancy (ticks)
system.tol2bus.respLayer49.utilization            3.5                       # Layer utilization (%)
system.tol2bus.respLayer52.occupancy          2602496                       # Layer occupancy (ticks)
system.tol2bus.respLayer52.utilization            0.0                       # Layer utilization (%)
system.tol2bus.respLayer53.occupancy       1998250690                       # Layer occupancy (ticks)
system.tol2bus.respLayer53.utilization            2.4                       # Layer utilization (%)
system.tol2bus.respLayer56.occupancy          2615423                       # Layer occupancy (ticks)
system.tol2bus.respLayer56.utilization            0.0                       # Layer utilization (%)
system.tol2bus.respLayer57.occupancy       2522109782                       # Layer occupancy (ticks)
system.tol2bus.respLayer57.utilization            3.0                       # Layer utilization (%)
system.tol2bus.respLayer60.occupancy          2599448                       # Layer occupancy (ticks)
system.tol2bus.respLayer60.utilization            0.0                       # Layer utilization (%)
system.tol2bus.respLayer61.occupancy       2544242111                       # Layer occupancy (ticks)
system.tol2bus.respLayer61.utilization            3.0                       # Layer utilization (%)
system.tol2bus.respLayer64.occupancy          2673000                       # Layer occupancy (ticks)
system.tol2bus.respLayer64.utilization            0.0                       # Layer utilization (%)
system.tol2bus.respLayer65.occupancy       1900800939                       # Layer occupancy (ticks)
system.tol2bus.respLayer65.utilization            2.3                       # Layer utilization (%)

---------- End Simulation Statistics   ----------
