
---------- Begin Simulation Statistics ----------
sim_seconds                                  0.082553                       # Number of seconds simulated
sim_ticks                                 82553119000                       # Number of ticks simulated
final_tick                                82553119000                       # Number of ticks from beginning of simulation (restored from checkpoints and never reset)
sim_freq                                 1000000000000                       # Frequency of simulated ticks
host_inst_rate                                 118149                       # Simulator instruction rate (inst/s)
host_op_rate                                   119704                       # Simulator op (including micro ops) rate (op/s)
host_tick_rate                               12465015                       # Simulator tick rate (ticks/s)
host_mem_usage                                 886120                       # Number of bytes of host memory used
host_seconds                                  6622.79                       # Real time elapsed on the host
sim_insts                                   782478198                       # Number of instructions simulated
sim_ops                                     792775175                       # Number of ops (including micro ops) simulated
system.voltage_domain.voltage                       1                       # Voltage in Volts
system.clk_domain.clock                          1000                       # Clock period in ticks
system.physmem.bytes_read::cpu00.inst           22784                       # Number of bytes read from this memory
system.physmem.bytes_read::cpu00.data           68800                       # Number of bytes read from this memory
system.physmem.bytes_read::cpu01.inst            5952                       # Number of bytes read from this memory
system.physmem.bytes_read::cpu01.data          399488                       # Number of bytes read from this memory
system.physmem.bytes_read::cpu02.inst            1408                       # Number of bytes read from this memory
system.physmem.bytes_read::cpu02.data          342400                       # Number of bytes read from this memory
system.physmem.bytes_read::cpu03.inst             576                       # Number of bytes read from this memory
system.physmem.bytes_read::cpu03.data          371264                       # Number of bytes read from this memory
system.physmem.bytes_read::cpu04.inst            3264                       # Number of bytes read from this memory
system.physmem.bytes_read::cpu04.data          310720                       # Number of bytes read from this memory
system.physmem.bytes_read::cpu05.inst            3392                       # Number of bytes read from this memory
system.physmem.bytes_read::cpu05.data          287040                       # Number of bytes read from this memory
system.physmem.bytes_read::cpu06.inst            1920                       # Number of bytes read from this memory
system.physmem.bytes_read::cpu06.data          278080                       # Number of bytes read from this memory
system.physmem.bytes_read::cpu07.inst            1728                       # Number of bytes read from this memory
system.physmem.bytes_read::cpu07.data          292992                       # Number of bytes read from this memory
system.physmem.bytes_read::cpu08.inst            1216                       # Number of bytes read from this memory
system.physmem.bytes_read::cpu08.data          276480                       # Number of bytes read from this memory
system.physmem.bytes_read::cpu09.inst             896                       # Number of bytes read from this memory
system.physmem.bytes_read::cpu09.data          314816                       # Number of bytes read from this memory
system.physmem.bytes_read::cpu10.inst            1088                       # Number of bytes read from this memory
system.physmem.bytes_read::cpu10.data          316032                       # Number of bytes read from this memory
system.physmem.bytes_read::cpu11.inst            1728                       # Number of bytes read from this memory
system.physmem.bytes_read::cpu11.data          316288                       # Number of bytes read from this memory
system.physmem.bytes_read::cpu12.inst            1088                       # Number of bytes read from this memory
system.physmem.bytes_read::cpu12.data          334144                       # Number of bytes read from this memory
system.physmem.bytes_read::cpu13.inst             704                       # Number of bytes read from this memory
system.physmem.bytes_read::cpu13.data          250240                       # Number of bytes read from this memory
system.physmem.bytes_read::cpu14.inst            1024                       # Number of bytes read from this memory
system.physmem.bytes_read::cpu14.data          259968                       # Number of bytes read from this memory
system.physmem.bytes_read::cpu15.inst            2176                       # Number of bytes read from this memory
system.physmem.bytes_read::cpu15.data          377792                       # Number of bytes read from this memory
system.physmem.bytes_read::cpu16.inst            6656                       # Number of bytes read from this memory
system.physmem.bytes_read::cpu16.data          279744                       # Number of bytes read from this memory
system.physmem.bytes_read::total              5133888                       # Number of bytes read from this memory
system.physmem.bytes_inst_read::cpu00.inst        22784                       # Number of instructions bytes read from this memory
system.physmem.bytes_inst_read::cpu01.inst         5952                       # Number of instructions bytes read from this memory
system.physmem.bytes_inst_read::cpu02.inst         1408                       # Number of instructions bytes read from this memory
system.physmem.bytes_inst_read::cpu03.inst          576                       # Number of instructions bytes read from this memory
system.physmem.bytes_inst_read::cpu04.inst         3264                       # Number of instructions bytes read from this memory
system.physmem.bytes_inst_read::cpu05.inst         3392                       # Number of instructions bytes read from this memory
system.physmem.bytes_inst_read::cpu06.inst         1920                       # Number of instructions bytes read from this memory
system.physmem.bytes_inst_read::cpu07.inst         1728                       # Number of instructions bytes read from this memory
system.physmem.bytes_inst_read::cpu08.inst         1216                       # Number of instructions bytes read from this memory
system.physmem.bytes_inst_read::cpu09.inst          896                       # Number of instructions bytes read from this memory
system.physmem.bytes_inst_read::cpu10.inst         1088                       # Number of instructions bytes read from this memory
system.physmem.bytes_inst_read::cpu11.inst         1728                       # Number of instructions bytes read from this memory
system.physmem.bytes_inst_read::cpu12.inst         1088                       # Number of instructions bytes read from this memory
system.physmem.bytes_inst_read::cpu13.inst          704                       # Number of instructions bytes read from this memory
system.physmem.bytes_inst_read::cpu14.inst         1024                       # Number of instructions bytes read from this memory
system.physmem.bytes_inst_read::cpu15.inst         2176                       # Number of instructions bytes read from this memory
system.physmem.bytes_inst_read::cpu16.inst         6656                       # Number of instructions bytes read from this memory
system.physmem.bytes_inst_read::total           57600                       # Number of instructions bytes read from this memory
system.physmem.bytes_written::writebacks       707072                       # Number of bytes written to this memory
system.physmem.bytes_written::total            707072                       # Number of bytes written to this memory
system.physmem.num_reads::cpu00.inst              356                       # Number of read requests responded to by this memory
system.physmem.num_reads::cpu00.data             1075                       # Number of read requests responded to by this memory
system.physmem.num_reads::cpu01.inst               93                       # Number of read requests responded to by this memory
system.physmem.num_reads::cpu01.data             6242                       # Number of read requests responded to by this memory
system.physmem.num_reads::cpu02.inst               22                       # Number of read requests responded to by this memory
system.physmem.num_reads::cpu02.data             5350                       # Number of read requests responded to by this memory
system.physmem.num_reads::cpu03.inst                9                       # Number of read requests responded to by this memory
system.physmem.num_reads::cpu03.data             5801                       # Number of read requests responded to by this memory
system.physmem.num_reads::cpu04.inst               51                       # Number of read requests responded to by this memory
system.physmem.num_reads::cpu04.data             4855                       # Number of read requests responded to by this memory
system.physmem.num_reads::cpu05.inst               53                       # Number of read requests responded to by this memory
system.physmem.num_reads::cpu05.data             4485                       # Number of read requests responded to by this memory
system.physmem.num_reads::cpu06.inst               30                       # Number of read requests responded to by this memory
system.physmem.num_reads::cpu06.data             4345                       # Number of read requests responded to by this memory
system.physmem.num_reads::cpu07.inst               27                       # Number of read requests responded to by this memory
system.physmem.num_reads::cpu07.data             4578                       # Number of read requests responded to by this memory
system.physmem.num_reads::cpu08.inst               19                       # Number of read requests responded to by this memory
system.physmem.num_reads::cpu08.data             4320                       # Number of read requests responded to by this memory
system.physmem.num_reads::cpu09.inst               14                       # Number of read requests responded to by this memory
system.physmem.num_reads::cpu09.data             4919                       # Number of read requests responded to by this memory
system.physmem.num_reads::cpu10.inst               17                       # Number of read requests responded to by this memory
system.physmem.num_reads::cpu10.data             4938                       # Number of read requests responded to by this memory
system.physmem.num_reads::cpu11.inst               27                       # Number of read requests responded to by this memory
system.physmem.num_reads::cpu11.data             4942                       # Number of read requests responded to by this memory
system.physmem.num_reads::cpu12.inst               17                       # Number of read requests responded to by this memory
system.physmem.num_reads::cpu12.data             5221                       # Number of read requests responded to by this memory
system.physmem.num_reads::cpu13.inst               11                       # Number of read requests responded to by this memory
system.physmem.num_reads::cpu13.data             3910                       # Number of read requests responded to by this memory
system.physmem.num_reads::cpu14.inst               16                       # Number of read requests responded to by this memory
system.physmem.num_reads::cpu14.data             4062                       # Number of read requests responded to by this memory
system.physmem.num_reads::cpu15.inst               34                       # Number of read requests responded to by this memory
system.physmem.num_reads::cpu15.data             5903                       # Number of read requests responded to by this memory
system.physmem.num_reads::cpu16.inst              104                       # Number of read requests responded to by this memory
system.physmem.num_reads::cpu16.data             4371                       # Number of read requests responded to by this memory
system.physmem.num_reads::total                 80217                       # Number of read requests responded to by this memory
system.physmem.num_writes::writebacks           11048                       # Number of write requests responded to by this memory
system.physmem.num_writes::total                11048                       # Number of write requests responded to by this memory
system.physmem.bw_read::cpu00.inst             275992                       # Total read bandwidth from this memory (bytes/s)
system.physmem.bw_read::cpu00.data             833403                       # Total read bandwidth from this memory (bytes/s)
system.physmem.bw_read::cpu01.inst              72099                       # Total read bandwidth from this memory (bytes/s)
system.physmem.bw_read::cpu01.data            4839163                       # Total read bandwidth from this memory (bytes/s)
system.physmem.bw_read::cpu02.inst              17056                       # Total read bandwidth from this memory (bytes/s)
system.physmem.bw_read::cpu02.data            4147633                       # Total read bandwidth from this memory (bytes/s)
system.physmem.bw_read::cpu03.inst               6977                       # Total read bandwidth from this memory (bytes/s)
system.physmem.bw_read::cpu03.data            4497274                       # Total read bandwidth from this memory (bytes/s)
system.physmem.bw_read::cpu04.inst              39538                       # Total read bandwidth from this memory (bytes/s)
system.physmem.bw_read::cpu04.data            3763880                       # Total read bandwidth from this memory (bytes/s)
system.physmem.bw_read::cpu05.inst              41089                       # Total read bandwidth from this memory (bytes/s)
system.physmem.bw_read::cpu05.data            3477034                       # Total read bandwidth from this memory (bytes/s)
system.physmem.bw_read::cpu06.inst              23258                       # Total read bandwidth from this memory (bytes/s)
system.physmem.bw_read::cpu06.data            3368498                       # Total read bandwidth from this memory (bytes/s)
system.physmem.bw_read::cpu07.inst              20932                       # Total read bandwidth from this memory (bytes/s)
system.physmem.bw_read::cpu07.data            3549133                       # Total read bandwidth from this memory (bytes/s)
system.physmem.bw_read::cpu08.inst              14730                       # Total read bandwidth from this memory (bytes/s)
system.physmem.bw_read::cpu08.data            3349116                       # Total read bandwidth from this memory (bytes/s)
system.physmem.bw_read::cpu09.inst              10854                       # Total read bandwidth from this memory (bytes/s)
system.physmem.bw_read::cpu09.data            3813496                       # Total read bandwidth from this memory (bytes/s)
system.physmem.bw_read::cpu10.inst              13179                       # Total read bandwidth from this memory (bytes/s)
system.physmem.bw_read::cpu10.data            3828226                       # Total read bandwidth from this memory (bytes/s)
system.physmem.bw_read::cpu11.inst              20932                       # Total read bandwidth from this memory (bytes/s)
system.physmem.bw_read::cpu11.data            3831327                       # Total read bandwidth from this memory (bytes/s)
system.physmem.bw_read::cpu12.inst              13179                       # Total read bandwidth from this memory (bytes/s)
system.physmem.bw_read::cpu12.data            4047624                       # Total read bandwidth from this memory (bytes/s)
system.physmem.bw_read::cpu13.inst               8528                       # Total read bandwidth from this memory (bytes/s)
system.physmem.bw_read::cpu13.data            3031260                       # Total read bandwidth from this memory (bytes/s)
system.physmem.bw_read::cpu14.inst              12404                       # Total read bandwidth from this memory (bytes/s)
system.physmem.bw_read::cpu14.data            3149100                       # Total read bandwidth from this memory (bytes/s)
system.physmem.bw_read::cpu15.inst              26359                       # Total read bandwidth from this memory (bytes/s)
system.physmem.bw_read::cpu15.data            4576350                       # Total read bandwidth from this memory (bytes/s)
system.physmem.bw_read::cpu16.inst              80627                       # Total read bandwidth from this memory (bytes/s)
system.physmem.bw_read::cpu16.data            3388655                       # Total read bandwidth from this memory (bytes/s)
system.physmem.bw_read::total                62188904                       # Total read bandwidth from this memory (bytes/s)
system.physmem.bw_inst_read::cpu00.inst        275992                       # Instruction read bandwidth from this memory (bytes/s)
system.physmem.bw_inst_read::cpu01.inst         72099                       # Instruction read bandwidth from this memory (bytes/s)
system.physmem.bw_inst_read::cpu02.inst         17056                       # Instruction read bandwidth from this memory (bytes/s)
system.physmem.bw_inst_read::cpu03.inst          6977                       # Instruction read bandwidth from this memory (bytes/s)
system.physmem.bw_inst_read::cpu04.inst         39538                       # Instruction read bandwidth from this memory (bytes/s)
system.physmem.bw_inst_read::cpu05.inst         41089                       # Instruction read bandwidth from this memory (bytes/s)
system.physmem.bw_inst_read::cpu06.inst         23258                       # Instruction read bandwidth from this memory (bytes/s)
system.physmem.bw_inst_read::cpu07.inst         20932                       # Instruction read bandwidth from this memory (bytes/s)
system.physmem.bw_inst_read::cpu08.inst         14730                       # Instruction read bandwidth from this memory (bytes/s)
system.physmem.bw_inst_read::cpu09.inst         10854                       # Instruction read bandwidth from this memory (bytes/s)
system.physmem.bw_inst_read::cpu10.inst         13179                       # Instruction read bandwidth from this memory (bytes/s)
system.physmem.bw_inst_read::cpu11.inst         20932                       # Instruction read bandwidth from this memory (bytes/s)
system.physmem.bw_inst_read::cpu12.inst         13179                       # Instruction read bandwidth from this memory (bytes/s)
system.physmem.bw_inst_read::cpu13.inst          8528                       # Instruction read bandwidth from this memory (bytes/s)
system.physmem.bw_inst_read::cpu14.inst         12404                       # Instruction read bandwidth from this memory (bytes/s)
system.physmem.bw_inst_read::cpu15.inst         26359                       # Instruction read bandwidth from this memory (bytes/s)
system.physmem.bw_inst_read::cpu16.inst         80627                       # Instruction read bandwidth from this memory (bytes/s)
system.physmem.bw_inst_read::total             697733                       # Instruction read bandwidth from this memory (bytes/s)
system.physmem.bw_write::writebacks           8565055                       # Write bandwidth from this memory (bytes/s)
system.physmem.bw_write::total                8565055                       # Write bandwidth from this memory (bytes/s)
system.physmem.bw_total::writebacks           8565055                       # Total bandwidth to/from this memory (bytes/s)
system.physmem.bw_total::cpu00.inst            275992                       # Total bandwidth to/from this memory (bytes/s)
system.physmem.bw_total::cpu00.data            833403                       # Total bandwidth to/from this memory (bytes/s)
system.physmem.bw_total::cpu01.inst             72099                       # Total bandwidth to/from this memory (bytes/s)
system.physmem.bw_total::cpu01.data           4839163                       # Total bandwidth to/from this memory (bytes/s)
system.physmem.bw_total::cpu02.inst             17056                       # Total bandwidth to/from this memory (bytes/s)
system.physmem.bw_total::cpu02.data           4147633                       # Total bandwidth to/from this memory (bytes/s)
system.physmem.bw_total::cpu03.inst              6977                       # Total bandwidth to/from this memory (bytes/s)
system.physmem.bw_total::cpu03.data           4497274                       # Total bandwidth to/from this memory (bytes/s)
system.physmem.bw_total::cpu04.inst             39538                       # Total bandwidth to/from this memory (bytes/s)
system.physmem.bw_total::cpu04.data           3763880                       # Total bandwidth to/from this memory (bytes/s)
system.physmem.bw_total::cpu05.inst             41089                       # Total bandwidth to/from this memory (bytes/s)
system.physmem.bw_total::cpu05.data           3477034                       # Total bandwidth to/from this memory (bytes/s)
system.physmem.bw_total::cpu06.inst             23258                       # Total bandwidth to/from this memory (bytes/s)
system.physmem.bw_total::cpu06.data           3368498                       # Total bandwidth to/from this memory (bytes/s)
system.physmem.bw_total::cpu07.inst             20932                       # Total bandwidth to/from this memory (bytes/s)
system.physmem.bw_total::cpu07.data           3549133                       # Total bandwidth to/from this memory (bytes/s)
system.physmem.bw_total::cpu08.inst             14730                       # Total bandwidth to/from this memory (bytes/s)
system.physmem.bw_total::cpu08.data           3349116                       # Total bandwidth to/from this memory (bytes/s)
system.physmem.bw_total::cpu09.inst             10854                       # Total bandwidth to/from this memory (bytes/s)
system.physmem.bw_total::cpu09.data           3813496                       # Total bandwidth to/from this memory (bytes/s)
system.physmem.bw_total::cpu10.inst             13179                       # Total bandwidth to/from this memory (bytes/s)
system.physmem.bw_total::cpu10.data           3828226                       # Total bandwidth to/from this memory (bytes/s)
system.physmem.bw_total::cpu11.inst             20932                       # Total bandwidth to/from this memory (bytes/s)
system.physmem.bw_total::cpu11.data           3831327                       # Total bandwidth to/from this memory (bytes/s)
system.physmem.bw_total::cpu12.inst             13179                       # Total bandwidth to/from this memory (bytes/s)
system.physmem.bw_total::cpu12.data           4047624                       # Total bandwidth to/from this memory (bytes/s)
system.physmem.bw_total::cpu13.inst              8528                       # Total bandwidth to/from this memory (bytes/s)
system.physmem.bw_total::cpu13.data           3031260                       # Total bandwidth to/from this memory (bytes/s)
system.physmem.bw_total::cpu14.inst             12404                       # Total bandwidth to/from this memory (bytes/s)
system.physmem.bw_total::cpu14.data           3149100                       # Total bandwidth to/from this memory (bytes/s)
system.physmem.bw_total::cpu15.inst             26359                       # Total bandwidth to/from this memory (bytes/s)
system.physmem.bw_total::cpu15.data           4576350                       # Total bandwidth to/from this memory (bytes/s)
system.physmem.bw_total::cpu16.inst             80627                       # Total bandwidth to/from this memory (bytes/s)
system.physmem.bw_total::cpu16.data           3388655                       # Total bandwidth to/from this memory (bytes/s)
system.physmem.bw_total::total               70753959                       # Total bandwidth to/from this memory (bytes/s)
system.cpu00.branchPred.lookups              41263912                       # Number of BP lookups
system.cpu00.branchPred.condPredicted        41258207                       # Number of conditional branches predicted
system.cpu00.branchPred.condIncorrect             871                       # Number of conditional branches incorrect
system.cpu00.branchPred.BTBLookups           41256873                       # Number of BTB lookups
system.cpu00.branchPred.BTBHits              41256332                       # Number of BTB hits
system.cpu00.branchPred.BTBCorrect                  0                       # Number of correct BTB predictions (this stat may not work properly.
system.cpu00.branchPred.BTBHitPct           99.998689                       # BTB Hit Percentage
system.cpu00.branchPred.usedRAS                  2634                       # Number of times the RAS was used to get a target.
system.cpu00.branchPred.RASInCorrect               63                       # Number of incorrect RAS predictions.
system.cpu00.dstage2_mmu.stage2_tlb.walker.walks            0                       # Table walker walks requested
system.cpu00.dstage2_mmu.stage2_tlb.walker.walkRequestOrigin_Requested::Data            0                       # Table walker requests started/completed, data/inst
system.cpu00.dstage2_mmu.stage2_tlb.walker.walkRequestOrigin_Requested::Inst            0                       # Table walker requests started/completed, data/inst
system.cpu00.dstage2_mmu.stage2_tlb.walker.walkRequestOrigin_Requested::total            0                       # Table walker requests started/completed, data/inst
system.cpu00.dstage2_mmu.stage2_tlb.walker.walkRequestOrigin_Completed::Data            0                       # Table walker requests started/completed, data/inst
system.cpu00.dstage2_mmu.stage2_tlb.walker.walkRequestOrigin_Completed::Inst            0                       # Table walker requests started/completed, data/inst
system.cpu00.dstage2_mmu.stage2_tlb.walker.walkRequestOrigin_Completed::total            0                       # Table walker requests started/completed, data/inst
system.cpu00.dstage2_mmu.stage2_tlb.walker.walkRequestOrigin::total            0                       # Table walker requests started/completed, data/inst
system.cpu00.dstage2_mmu.stage2_tlb.inst_hits            0                       # ITB inst hits
system.cpu00.dstage2_mmu.stage2_tlb.inst_misses            0                       # ITB inst misses
system.cpu00.dstage2_mmu.stage2_tlb.read_hits            0                       # DTB read hits
system.cpu00.dstage2_mmu.stage2_tlb.read_misses            0                       # DTB read misses
system.cpu00.dstage2_mmu.stage2_tlb.write_hits            0                       # DTB write hits
system.cpu00.dstage2_mmu.stage2_tlb.write_misses            0                       # DTB write misses
system.cpu00.dstage2_mmu.stage2_tlb.flush_tlb            0                       # Number of times complete TLB was flushed
system.cpu00.dstage2_mmu.stage2_tlb.flush_tlb_mva            0                       # Number of times TLB was flushed by MVA
system.cpu00.dstage2_mmu.stage2_tlb.flush_tlb_mva_asid            0                       # Number of times TLB was flushed by MVA & ASID
system.cpu00.dstage2_mmu.stage2_tlb.flush_tlb_asid            0                       # Number of times TLB was flushed by ASID
system.cpu00.dstage2_mmu.stage2_tlb.flush_entries            0                       # Number of entries that have been flushed from TLB
system.cpu00.dstage2_mmu.stage2_tlb.align_faults            0                       # Number of TLB faults due to alignment restrictions
system.cpu00.dstage2_mmu.stage2_tlb.prefetch_faults            0                       # Number of TLB faults due to prefetch
system.cpu00.dstage2_mmu.stage2_tlb.domain_faults            0                       # Number of TLB faults due to domain restrictions
system.cpu00.dstage2_mmu.stage2_tlb.perms_faults            0                       # Number of TLB faults due to permissions restrictions
system.cpu00.dstage2_mmu.stage2_tlb.read_accesses            0                       # DTB read accesses
system.cpu00.dstage2_mmu.stage2_tlb.write_accesses            0                       # DTB write accesses
system.cpu00.dstage2_mmu.stage2_tlb.inst_accesses            0                       # ITB inst accesses
system.cpu00.dstage2_mmu.stage2_tlb.hits            0                       # DTB hits
system.cpu00.dstage2_mmu.stage2_tlb.misses            0                       # DTB misses
system.cpu00.dstage2_mmu.stage2_tlb.accesses            0                       # DTB accesses
system.cpu00.dtb.walker.walks                       0                       # Table walker walks requested
system.cpu00.dtb.walker.walkRequestOrigin_Requested::Data            0                       # Table walker requests started/completed, data/inst
system.cpu00.dtb.walker.walkRequestOrigin_Requested::Inst            0                       # Table walker requests started/completed, data/inst
system.cpu00.dtb.walker.walkRequestOrigin_Requested::total            0                       # Table walker requests started/completed, data/inst
system.cpu00.dtb.walker.walkRequestOrigin_Completed::Data            0                       # Table walker requests started/completed, data/inst
system.cpu00.dtb.walker.walkRequestOrigin_Completed::Inst            0                       # Table walker requests started/completed, data/inst
system.cpu00.dtb.walker.walkRequestOrigin_Completed::total            0                       # Table walker requests started/completed, data/inst
system.cpu00.dtb.walker.walkRequestOrigin::total            0                       # Table walker requests started/completed, data/inst
system.cpu00.dtb.inst_hits                          0                       # ITB inst hits
system.cpu00.dtb.inst_misses                        0                       # ITB inst misses
system.cpu00.dtb.read_hits                          0                       # DTB read hits
system.cpu00.dtb.read_misses                        0                       # DTB read misses
system.cpu00.dtb.write_hits                         0                       # DTB write hits
system.cpu00.dtb.write_misses                       0                       # DTB write misses
system.cpu00.dtb.flush_tlb                          0                       # Number of times complete TLB was flushed
system.cpu00.dtb.flush_tlb_mva                      0                       # Number of times TLB was flushed by MVA
system.cpu00.dtb.flush_tlb_mva_asid                 0                       # Number of times TLB was flushed by MVA & ASID
system.cpu00.dtb.flush_tlb_asid                     0                       # Number of times TLB was flushed by ASID
system.cpu00.dtb.flush_entries                      0                       # Number of entries that have been flushed from TLB
system.cpu00.dtb.align_faults                       0                       # Number of TLB faults due to alignment restrictions
system.cpu00.dtb.prefetch_faults                    0                       # Number of TLB faults due to prefetch
system.cpu00.dtb.domain_faults                      0                       # Number of TLB faults due to domain restrictions
system.cpu00.dtb.perms_faults                       0                       # Number of TLB faults due to permissions restrictions
system.cpu00.dtb.read_accesses                      0                       # DTB read accesses
system.cpu00.dtb.write_accesses                     0                       # DTB write accesses
system.cpu00.dtb.inst_accesses                      0                       # ITB inst accesses
system.cpu00.dtb.hits                               0                       # DTB hits
system.cpu00.dtb.misses                             0                       # DTB misses
system.cpu00.dtb.accesses                           0                       # DTB accesses
system.cpu00.istage2_mmu.stage2_tlb.walker.walks            0                       # Table walker walks requested
system.cpu00.istage2_mmu.stage2_tlb.walker.walkRequestOrigin_Requested::Data            0                       # Table walker requests started/completed, data/inst
system.cpu00.istage2_mmu.stage2_tlb.walker.walkRequestOrigin_Requested::Inst            0                       # Table walker requests started/completed, data/inst
system.cpu00.istage2_mmu.stage2_tlb.walker.walkRequestOrigin_Requested::total            0                       # Table walker requests started/completed, data/inst
system.cpu00.istage2_mmu.stage2_tlb.walker.walkRequestOrigin_Completed::Data            0                       # Table walker requests started/completed, data/inst
system.cpu00.istage2_mmu.stage2_tlb.walker.walkRequestOrigin_Completed::Inst            0                       # Table walker requests started/completed, data/inst
system.cpu00.istage2_mmu.stage2_tlb.walker.walkRequestOrigin_Completed::total            0                       # Table walker requests started/completed, data/inst
system.cpu00.istage2_mmu.stage2_tlb.walker.walkRequestOrigin::total            0                       # Table walker requests started/completed, data/inst
system.cpu00.istage2_mmu.stage2_tlb.inst_hits            0                       # ITB inst hits
system.cpu00.istage2_mmu.stage2_tlb.inst_misses            0                       # ITB inst misses
system.cpu00.istage2_mmu.stage2_tlb.read_hits            0                       # DTB read hits
system.cpu00.istage2_mmu.stage2_tlb.read_misses            0                       # DTB read misses
system.cpu00.istage2_mmu.stage2_tlb.write_hits            0                       # DTB write hits
system.cpu00.istage2_mmu.stage2_tlb.write_misses            0                       # DTB write misses
system.cpu00.istage2_mmu.stage2_tlb.flush_tlb            0                       # Number of times complete TLB was flushed
system.cpu00.istage2_mmu.stage2_tlb.flush_tlb_mva            0                       # Number of times TLB was flushed by MVA
system.cpu00.istage2_mmu.stage2_tlb.flush_tlb_mva_asid            0                       # Number of times TLB was flushed by MVA & ASID
system.cpu00.istage2_mmu.stage2_tlb.flush_tlb_asid            0                       # Number of times TLB was flushed by ASID
system.cpu00.istage2_mmu.stage2_tlb.flush_entries            0                       # Number of entries that have been flushed from TLB
system.cpu00.istage2_mmu.stage2_tlb.align_faults            0                       # Number of TLB faults due to alignment restrictions
system.cpu00.istage2_mmu.stage2_tlb.prefetch_faults            0                       # Number of TLB faults due to prefetch
system.cpu00.istage2_mmu.stage2_tlb.domain_faults            0                       # Number of TLB faults due to domain restrictions
system.cpu00.istage2_mmu.stage2_tlb.perms_faults            0                       # Number of TLB faults due to permissions restrictions
system.cpu00.istage2_mmu.stage2_tlb.read_accesses            0                       # DTB read accesses
system.cpu00.istage2_mmu.stage2_tlb.write_accesses            0                       # DTB write accesses
system.cpu00.istage2_mmu.stage2_tlb.inst_accesses            0                       # ITB inst accesses
system.cpu00.istage2_mmu.stage2_tlb.hits            0                       # DTB hits
system.cpu00.istage2_mmu.stage2_tlb.misses            0                       # DTB misses
system.cpu00.istage2_mmu.stage2_tlb.accesses            0                       # DTB accesses
system.cpu00.itb.walker.walks                       0                       # Table walker walks requested
system.cpu00.itb.walker.walkRequestOrigin_Requested::Data            0                       # Table walker requests started/completed, data/inst
system.cpu00.itb.walker.walkRequestOrigin_Requested::Inst            0                       # Table walker requests started/completed, data/inst
system.cpu00.itb.walker.walkRequestOrigin_Requested::total            0                       # Table walker requests started/completed, data/inst
system.cpu00.itb.walker.walkRequestOrigin_Completed::Data            0                       # Table walker requests started/completed, data/inst
system.cpu00.itb.walker.walkRequestOrigin_Completed::Inst            0                       # Table walker requests started/completed, data/inst
system.cpu00.itb.walker.walkRequestOrigin_Completed::total            0                       # Table walker requests started/completed, data/inst
system.cpu00.itb.walker.walkRequestOrigin::total            0                       # Table walker requests started/completed, data/inst
system.cpu00.itb.inst_hits                          0                       # ITB inst hits
system.cpu00.itb.inst_misses                        0                       # ITB inst misses
system.cpu00.itb.read_hits                          0                       # DTB read hits
system.cpu00.itb.read_misses                        0                       # DTB read misses
system.cpu00.itb.write_hits                         0                       # DTB write hits
system.cpu00.itb.write_misses                       0                       # DTB write misses
system.cpu00.itb.flush_tlb                          0                       # Number of times complete TLB was flushed
system.cpu00.itb.flush_tlb_mva                      0                       # Number of times TLB was flushed by MVA
system.cpu00.itb.flush_tlb_mva_asid                 0                       # Number of times TLB was flushed by MVA & ASID
system.cpu00.itb.flush_tlb_asid                     0                       # Number of times TLB was flushed by ASID
system.cpu00.itb.flush_entries                      0                       # Number of entries that have been flushed from TLB
system.cpu00.itb.align_faults                       0                       # Number of TLB faults due to alignment restrictions
system.cpu00.itb.prefetch_faults                    0                       # Number of TLB faults due to prefetch
system.cpu00.itb.domain_faults                      0                       # Number of TLB faults due to domain restrictions
system.cpu00.itb.perms_faults                       0                       # Number of TLB faults due to permissions restrictions
system.cpu00.itb.read_accesses                      0                       # DTB read accesses
system.cpu00.itb.write_accesses                     0                       # DTB write accesses
system.cpu00.itb.inst_accesses                      0                       # ITB inst accesses
system.cpu00.itb.hits                               0                       # DTB hits
system.cpu00.itb.misses                             0                       # DTB misses
system.cpu00.itb.accesses                           0                       # DTB accesses
system.cpu00.workload.num_syscalls            1050790                       # Number of system calls
system.cpu00.numCycles                       82553120                       # number of cpu cycles simulated
system.cpu00.numWorkItemsStarted                    0                       # number of work items this cpu started
system.cpu00.numWorkItemsCompleted                  0                       # number of work items this cpu completed
system.cpu00.fetch.icacheStallCycles            14715                       # Number of cycles fetch is stalled on an Icache miss
system.cpu00.fetch.Insts                    206310231                       # Number of instructions fetch has processed
system.cpu00.fetch.Branches                  41263912                       # Number of branches that fetch encountered
system.cpu00.fetch.predictedBranches         41258966                       # Number of branches that fetch has predicted taken
system.cpu00.fetch.Cycles                    82529337                       # Number of cycles fetch has run and was not squashing or blocked
system.cpu00.fetch.SquashCycles                  2171                       # Number of cycles fetch has spent squashing
system.cpu00.fetch.PendingTrapStallCycles          165                       # Number of stall cycles due to pending traps
system.cpu00.fetch.CacheLines                    7787                       # Number of cache lines fetched
system.cpu00.fetch.IcacheSquashes                 309                       # Number of outstanding Icache misses that were squashed
system.cpu00.fetch.rateDist::samples         82545302                       # Number of instructions fetched each cycle (Total)
system.cpu00.fetch.rateDist::mean            2.499432                       # Number of instructions fetched each cycle (Total)
system.cpu00.fetch.rateDist::stdev           0.501502                       # Number of instructions fetched each cycle (Total)
system.cpu00.fetch.rateDist::underflows             0      0.00%      0.00% # Number of instructions fetched each cycle (Total)
system.cpu00.fetch.rateDist::0                  19691      0.02%      0.02% # Number of instructions fetched each cycle (Total)
system.cpu00.fetch.rateDist::1                   3024      0.00%      0.03% # Number of instructions fetched each cycle (Total)
system.cpu00.fetch.rateDist::2               41254408     49.98%     50.01% # Number of instructions fetched each cycle (Total)
system.cpu00.fetch.rateDist::3               41268179     49.99%    100.00% # Number of instructions fetched each cycle (Total)
system.cpu00.fetch.rateDist::overflows              0      0.00%    100.00% # Number of instructions fetched each cycle (Total)
system.cpu00.fetch.rateDist::min_value              0                       # Number of instructions fetched each cycle (Total)
system.cpu00.fetch.rateDist::max_value              3                       # Number of instructions fetched each cycle (Total)
system.cpu00.fetch.rateDist::total           82545302                       # Number of instructions fetched each cycle (Total)
system.cpu00.fetch.branchRate                0.499847                       # Number of branch fetches per cycle
system.cpu00.fetch.rate                      2.499121                       # Number of inst fetches per cycle
system.cpu00.decode.IdleCycles                  13819                       # Number of cycles decode is idle
system.cpu00.decode.BlockedCycles                7045                       # Number of cycles decode is blocked
system.cpu00.decode.RunCycles                82522662                       # Number of cycles decode is running
system.cpu00.decode.UnblockCycles                 897                       # Number of cycles decode is unblocking
system.cpu00.decode.SquashCycles                  879                       # Number of cycles decode is squashing
system.cpu00.decode.BranchResolved               2644                       # Number of times decode resolved a branch
system.cpu00.decode.BranchMispred                 226                       # Number of times decode detected a branch misprediction
system.cpu00.decode.DecodedInsts            206311755                       # Number of instructions handled by decode
system.cpu00.decode.SquashedInsts                 464                       # Number of squashed instructions handled by decode
system.cpu00.rename.SquashCycles                  879                       # Number of cycles rename is squashing
system.cpu00.rename.IdleCycles                  14728                       # Number of cycles rename is idle
system.cpu00.rename.BlockCycles                   785                       # Number of cycles rename is blocking
system.cpu00.rename.serializeStallCycles         3885                       # count of cycles rename stalled for serializing inst
system.cpu00.rename.RunCycles                82522567                       # Number of cycles rename is running
system.cpu00.rename.UnblockCycles                2458                       # Number of cycles rename is unblocking
system.cpu00.rename.RenamedInsts            206309976                       # Number of instructions processed by rename
system.cpu00.rename.IQFullEvents                    1                       # Number of times rename has blocked due to IQ full
system.cpu00.rename.SQFullEvents                 2349                       # Number of times rename has blocked due to SQ full
system.cpu00.rename.RenamedOperands         206312049                       # Number of destination operands rename has renamed
system.cpu00.rename.RenameLookups           949011480                       # Number of register rename lookups that rename has made
system.cpu00.rename.int_rename_lookups      206311820                       # Number of integer rename lookups
system.cpu00.rename.fp_rename_lookups              16                       # Number of floating rename lookups
system.cpu00.rename.CommittedMaps           206299344                       # Number of HB maps that are committed
system.cpu00.rename.UndoneMaps                  12705                       # Number of HB maps that are undone due to squashing
system.cpu00.rename.serializingInsts               85                       # count of serializing insts renamed
system.cpu00.rename.tempSerializingInsts           86                       # count of temporary serializing insts renamed
system.cpu00.rename.skidInsts                    1164                       # count of insts added to the skid buffer
system.cpu00.memDep0.insertedLoads           82507483                       # Number of loads inserted to the mem dependence unit.
system.cpu00.memDep0.insertedStores          41257510                       # Number of stores inserted to the mem dependence unit.
system.cpu00.memDep0.conflictingLoads        41250458                       # Number of conflicting loads.
system.cpu00.memDep0.conflictingStores       41250370                       # Number of conflicting stores.
system.cpu00.iq.iqInstsAdded                206306815                       # Number of instructions added to the IQ (excludes non-spec)
system.cpu00.iq.iqNonSpecInstsAdded               110                       # Number of non-speculative instructions added to the IQ
system.cpu00.iq.iqInstsIssued               206303756                       # Number of instructions issued
system.cpu00.iq.iqSquashedInstsIssued             644                       # Number of squashed instructions issued
system.cpu00.iq.iqSquashedInstsExamined          8419                       # Number of squashed instructions iterated over during squash; mainly for profiling
system.cpu00.iq.iqSquashedOperandsExamined        20126                       # Number of squashed operands that are examined and possibly removed from graph
system.cpu00.iq.iqSquashedNonSpecRemoved            9                       # Number of squashed non-spec instructions that were removed
system.cpu00.iq.issued_per_cycle::samples     82545302                       # Number of insts issued each cycle
system.cpu00.iq.issued_per_cycle::mean       2.499279                       # Number of insts issued each cycle
system.cpu00.iq.issued_per_cycle::stdev      0.707100                       # Number of insts issued each cycle
system.cpu00.iq.issued_per_cycle::underflows            0      0.00%      0.00% # Number of insts issued each cycle
system.cpu00.iq.issued_per_cycle::0             20002      0.02%      0.02% # Number of insts issued each cycle
system.cpu00.iq.issued_per_cycle::1          10257796     12.43%     12.45% # Number of insts issued each cycle
system.cpu00.iq.issued_per_cycle::2          20756552     25.15%     37.60% # Number of insts issued each cycle
system.cpu00.iq.issued_per_cycle::3          51510952     62.40%    100.00% # Number of insts issued each cycle
system.cpu00.iq.issued_per_cycle::overflows            0      0.00%    100.00% # Number of insts issued each cycle
system.cpu00.iq.issued_per_cycle::min_value            0                       # Number of insts issued each cycle
system.cpu00.iq.issued_per_cycle::max_value            3                       # Number of insts issued each cycle
system.cpu00.iq.issued_per_cycle::total      82545302                       # Number of insts issued each cycle
system.cpu00.iq.fu_full::No_OpClass                 0                       # attempts to use FU when none available
system.cpu00.iq.fu_full::IntAlu                     0                       # attempts to use FU when none available
system.cpu00.iq.fu_full::IntMult                    0                       # attempts to use FU when none available
system.cpu00.iq.fu_full::IntDiv                     0                       # attempts to use FU when none available
system.cpu00.iq.fu_full::FloatAdd                   0                       # attempts to use FU when none available
system.cpu00.iq.fu_full::FloatCmp                   0                       # attempts to use FU when none available
system.cpu00.iq.fu_full::FloatCvt                   0                       # attempts to use FU when none available
system.cpu00.iq.fu_full::FloatMult                  0                       # attempts to use FU when none available
system.cpu00.iq.fu_full::FloatDiv                   0                       # attempts to use FU when none available
system.cpu00.iq.fu_full::FloatSqrt                  0                       # attempts to use FU when none available
system.cpu00.iq.fu_full::SimdAdd                    0                       # attempts to use FU when none available
system.cpu00.iq.fu_full::SimdAddAcc                 0                       # attempts to use FU when none available
system.cpu00.iq.fu_full::SimdAlu                    0                       # attempts to use FU when none available
system.cpu00.iq.fu_full::SimdCmp                    0                       # attempts to use FU when none available
system.cpu00.iq.fu_full::SimdCvt                    0                       # attempts to use FU when none available
system.cpu00.iq.fu_full::SimdMisc                   0                       # attempts to use FU when none available
system.cpu00.iq.fu_full::SimdMult                   0                       # attempts to use FU when none available
system.cpu00.iq.fu_full::SimdMultAcc                0                       # attempts to use FU when none available
system.cpu00.iq.fu_full::SimdShift                  0                       # attempts to use FU when none available
system.cpu00.iq.fu_full::SimdShiftAcc               0                       # attempts to use FU when none available
system.cpu00.iq.fu_full::SimdSqrt                   0                       # attempts to use FU when none available
system.cpu00.iq.fu_full::SimdFloatAdd               0                       # attempts to use FU when none available
system.cpu00.iq.fu_full::SimdFloatAlu               0                       # attempts to use FU when none available
system.cpu00.iq.fu_full::SimdFloatCmp               0                       # attempts to use FU when none available
system.cpu00.iq.fu_full::SimdFloatCvt               0                       # attempts to use FU when none available
system.cpu00.iq.fu_full::SimdFloatDiv               0                       # attempts to use FU when none available
system.cpu00.iq.fu_full::SimdFloatMisc              0                       # attempts to use FU when none available
system.cpu00.iq.fu_full::SimdFloatMult              0                       # attempts to use FU when none available
system.cpu00.iq.fu_full::SimdFloatMultAcc            0                       # attempts to use FU when none available
system.cpu00.iq.fu_full::SimdFloatSqrt              0                       # attempts to use FU when none available
system.cpu00.iq.fu_full::MemRead                    0                       # attempts to use FU when none available
system.cpu00.iq.fu_full::MemWrite                   0                       # attempts to use FU when none available
system.cpu00.iq.fu_full::IprAccess                  0                       # attempts to use FU when none available
system.cpu00.iq.fu_full::InstPrefetch               0                       # attempts to use FU when none available
system.cpu00.iq.FU_type_0::No_OpClass               0      0.00%      0.00% # Type of FU issued
system.cpu00.iq.FU_type_0::IntAlu            82539732     40.01%     40.01% # Type of FU issued
system.cpu00.iq.FU_type_0::IntMult                  8      0.00%     40.01% # Type of FU issued
system.cpu00.iq.FU_type_0::IntDiv                   0      0.00%     40.01% # Type of FU issued
system.cpu00.iq.FU_type_0::FloatAdd                 0      0.00%     40.01% # Type of FU issued
system.cpu00.iq.FU_type_0::FloatCmp                 0      0.00%     40.01% # Type of FU issued
system.cpu00.iq.FU_type_0::FloatCvt                 0      0.00%     40.01% # Type of FU issued
system.cpu00.iq.FU_type_0::FloatMult                0      0.00%     40.01% # Type of FU issued
system.cpu00.iq.FU_type_0::FloatDiv                 0      0.00%     40.01% # Type of FU issued
system.cpu00.iq.FU_type_0::FloatSqrt                0      0.00%     40.01% # Type of FU issued
system.cpu00.iq.FU_type_0::SimdAdd                  0      0.00%     40.01% # Type of FU issued
system.cpu00.iq.FU_type_0::SimdAddAcc               0      0.00%     40.01% # Type of FU issued
system.cpu00.iq.FU_type_0::SimdAlu                  0      0.00%     40.01% # Type of FU issued
system.cpu00.iq.FU_type_0::SimdCmp                  0      0.00%     40.01% # Type of FU issued
system.cpu00.iq.FU_type_0::SimdCvt                  0      0.00%     40.01% # Type of FU issued
system.cpu00.iq.FU_type_0::SimdMisc                 0      0.00%     40.01% # Type of FU issued
system.cpu00.iq.FU_type_0::SimdMult                 0      0.00%     40.01% # Type of FU issued
system.cpu00.iq.FU_type_0::SimdMultAcc              0      0.00%     40.01% # Type of FU issued
system.cpu00.iq.FU_type_0::SimdShift                0      0.00%     40.01% # Type of FU issued
system.cpu00.iq.FU_type_0::SimdShiftAcc             0      0.00%     40.01% # Type of FU issued
system.cpu00.iq.FU_type_0::SimdSqrt                 0      0.00%     40.01% # Type of FU issued
system.cpu00.iq.FU_type_0::SimdFloatAdd             0      0.00%     40.01% # Type of FU issued
system.cpu00.iq.FU_type_0::SimdFloatAlu             0      0.00%     40.01% # Type of FU issued
system.cpu00.iq.FU_type_0::SimdFloatCmp             0      0.00%     40.01% # Type of FU issued
system.cpu00.iq.FU_type_0::SimdFloatCvt             0      0.00%     40.01% # Type of FU issued
system.cpu00.iq.FU_type_0::SimdFloatDiv             0      0.00%     40.01% # Type of FU issued
system.cpu00.iq.FU_type_0::SimdFloatMisc            3      0.00%     40.01% # Type of FU issued
system.cpu00.iq.FU_type_0::SimdFloatMult            0      0.00%     40.01% # Type of FU issued
system.cpu00.iq.FU_type_0::SimdFloatMultAcc            0      0.00%     40.01% # Type of FU issued
system.cpu00.iq.FU_type_0::SimdFloatSqrt            0      0.00%     40.01% # Type of FU issued
system.cpu00.iq.FU_type_0::MemRead           82506911     39.99%     80.00% # Type of FU issued
system.cpu00.iq.FU_type_0::MemWrite          41257102     20.00%    100.00% # Type of FU issued
system.cpu00.iq.FU_type_0::IprAccess                0      0.00%    100.00% # Type of FU issued
system.cpu00.iq.FU_type_0::InstPrefetch             0      0.00%    100.00% # Type of FU issued
system.cpu00.iq.FU_type_0::total            206303756                       # Type of FU issued
system.cpu00.iq.rate                         2.499043                       # Inst issue rate
system.cpu00.iq.fu_busy_cnt                         0                       # FU busy when requested
system.cpu00.iq.fu_busy_rate                        0                       # FU busy rate (busy events/executed inst)
system.cpu00.iq.int_inst_queue_reads        495153426                       # Number of integer instruction queue reads
system.cpu00.iq.int_inst_queue_writes       206315504                       # Number of integer instruction queue writes
system.cpu00.iq.int_inst_queue_wakeup_accesses    206302103                       # Number of integer instruction queue wakeup accesses
system.cpu00.iq.fp_inst_queue_reads                32                       # Number of floating instruction queue reads
system.cpu00.iq.fp_inst_queue_writes               16                       # Number of floating instruction queue writes
system.cpu00.iq.fp_inst_queue_wakeup_accesses           16                       # Number of floating instruction queue wakeup accesses
system.cpu00.iq.int_alu_accesses            206303740                       # Number of integer alu accesses
system.cpu00.iq.fp_alu_accesses                    16                       # Number of floating point alu accesses
system.cpu00.iew.lsq.thread0.forwLoads       41250771                       # Number of loads that had data forwarded from stores
system.cpu00.iew.lsq.thread0.invAddrLoads            0                       # Number of loads ignored due to an invalid address
system.cpu00.iew.lsq.thread0.squashedLoads         2399                       # Number of loads squashed
system.cpu00.iew.lsq.thread0.ignoredResponses            2                       # Number of memory responses ignored because the instruction is squashed
system.cpu00.iew.lsq.thread0.memOrderViolation          177                       # Number of memory ordering violations
system.cpu00.iew.lsq.thread0.squashedStores          941                       # Number of stores squashed
system.cpu00.iew.lsq.thread0.invAddrSwpfs            0                       # Number of software prefetches ignored due to an invalid address
system.cpu00.iew.lsq.thread0.blockedLoads            0                       # Number of blocked loads due to partial load-store forwarding
system.cpu00.iew.lsq.thread0.rescheduledLoads            4                       # Number of loads that were rescheduled
system.cpu00.iew.lsq.thread0.cacheBlocked            9                       # Number of times an access to memory failed due to the cache being blocked
system.cpu00.iew.iewIdleCycles                      0                       # Number of cycles IEW is idle
system.cpu00.iew.iewSquashCycles                  879                       # Number of cycles IEW is squashing
system.cpu00.iew.iewBlockCycles                   671                       # Number of cycles IEW is blocking
system.cpu00.iew.iewUnblockCycles                 118                       # Number of cycles IEW is unblocking
system.cpu00.iew.iewDispatchedInsts         206306946                       # Number of instructions dispatched to IQ
system.cpu00.iew.iewDispSquashedInsts             515                       # Number of squashed instructions skipped by dispatch
system.cpu00.iew.iewDispLoadInsts            82507483                       # Number of dispatched load instructions
system.cpu00.iew.iewDispStoreInsts           41257510                       # Number of dispatched store instructions
system.cpu00.iew.iewDispNonSpecInsts               80                       # Number of dispatched non-speculative instructions
system.cpu00.iew.iewIQFullEvents                    3                       # Number of times the IQ has become full, causing a stall
system.cpu00.iew.iewLSQFullEvents                   0                       # Number of times the LSQ has become full, causing a stall
system.cpu00.iew.memOrderViolationEvents          177                       # Number of memory order violations
system.cpu00.iew.predictedTakenIncorrect           91                       # Number of branches that were predicted taken incorrectly
system.cpu00.iew.predictedNotTakenIncorrect          616                       # Number of branches that were predicted not taken incorrectly
system.cpu00.iew.branchMispredicts                707                       # Number of branch mispredicts detected at execute
system.cpu00.iew.iewExecutedInsts           206302758                       # Number of executed instructions
system.cpu00.iew.iewExecLoadInsts            82506663                       # Number of load instructions executed
system.cpu00.iew.iewExecSquashedInsts             998                       # Number of squashed instructions skipped in execute
system.cpu00.iew.exec_swp                           0                       # number of swp insts executed
system.cpu00.iew.exec_nop                          21                       # number of nop insts executed
system.cpu00.iew.exec_refs                  123763477                       # number of memory reference insts executed
system.cpu00.iew.exec_branches               41261359                       # Number of branches executed
system.cpu00.iew.exec_stores                 41256814                       # Number of stores executed
system.cpu00.iew.exec_rate                   2.499030                       # Inst execution rate
system.cpu00.iew.wb_sent                    206302248                       # cumulative count of insts sent to commit
system.cpu00.iew.wb_count                   206302119                       # cumulative count of insts written-back
system.cpu00.iew.wb_producers               123776205                       # num instructions producing a value
system.cpu00.iew.wb_consumers               123788176                       # num instructions consuming a value
system.cpu00.iew.wb_penalized                       0                       # number of instrctions required to write to 'other' IQ
system.cpu00.iew.wb_rate                     2.499023                       # insts written-back per cycle
system.cpu00.iew.wb_fanout                   0.999903                       # average fanout of values written-back
system.cpu00.iew.wb_penalized_rate                  0                       # fraction of instructions written-back that wrote to 'other' IQ
system.cpu00.commit.commitSquashedInsts          8439                       # The number of squashed insts skipped by commit
system.cpu00.commit.commitNonSpecStalls           101                       # The number of times commit has been forced to stall to communicate backwards
system.cpu00.commit.branchMispredicts             665                       # The number of times a branch was mispredicted
system.cpu00.commit.committed_per_cycle::samples     82543811                       # Number of insts commited each cycle
system.cpu00.commit.committed_per_cycle::mean     2.499261                       # Number of insts commited each cycle
system.cpu00.commit.committed_per_cycle::stdev     1.580904                       # Number of insts commited each cycle
system.cpu00.commit.committed_per_cycle::underflows            0      0.00%      0.00% # Number of insts commited each cycle
system.cpu00.commit.committed_per_cycle::0        21568      0.03%      0.03% # Number of insts commited each cycle
system.cpu00.commit.committed_per_cycle::1     41259405     49.98%     50.01% # Number of insts commited each cycle
system.cpu00.commit.committed_per_cycle::2         3733      0.00%     50.02% # Number of insts commited each cycle
system.cpu00.commit.committed_per_cycle::3     10256183     12.43%     62.44% # Number of insts commited each cycle
system.cpu00.commit.committed_per_cycle::4     20752344     25.14%     87.58% # Number of insts commited each cycle
system.cpu00.commit.committed_per_cycle::5     10250184     12.42%    100.00% # Number of insts commited each cycle
system.cpu00.commit.committed_per_cycle::6           87      0.00%    100.00% # Number of insts commited each cycle
system.cpu00.commit.committed_per_cycle::7          188      0.00%    100.00% # Number of insts commited each cycle
system.cpu00.commit.committed_per_cycle::8          119      0.00%    100.00% # Number of insts commited each cycle
system.cpu00.commit.committed_per_cycle::overflows            0      0.00%    100.00% # Number of insts commited each cycle
system.cpu00.commit.committed_per_cycle::min_value            0                       # Number of insts commited each cycle
system.cpu00.commit.committed_per_cycle::max_value            8                       # Number of insts commited each cycle
system.cpu00.commit.committed_per_cycle::total     82543811                       # Number of insts commited each cycle
system.cpu00.commit.committedInsts          206294733                       # Number of instructions committed
system.cpu00.commit.committedOps            206298506                       # Number of ops (including micro ops) committed
system.cpu00.commit.swp_count                       0                       # Number of s/w prefetches committed
system.cpu00.commit.refs                    123761653                       # Number of memory references committed
system.cpu00.commit.loads                    82505084                       # Number of loads committed
system.cpu00.commit.membars                        30                       # Number of memory barriers committed
system.cpu00.commit.branches                 41260750                       # Number of branches committed
system.cpu00.commit.fp_insts                       16                       # Number of committed floating point instructions.
system.cpu00.commit.int_insts               165042356                       # Number of committed integer instructions.
system.cpu00.commit.function_calls               2256                       # Number of function calls committed.
system.cpu00.commit.op_class_0::No_OpClass            0      0.00%      0.00% # Class of committed instruction
system.cpu00.commit.op_class_0::IntAlu       82536842     40.01%     40.01% # Class of committed instruction
system.cpu00.commit.op_class_0::IntMult             8      0.00%     40.01% # Class of committed instruction
system.cpu00.commit.op_class_0::IntDiv              0      0.00%     40.01% # Class of committed instruction
system.cpu00.commit.op_class_0::FloatAdd            0      0.00%     40.01% # Class of committed instruction
system.cpu00.commit.op_class_0::FloatCmp            0      0.00%     40.01% # Class of committed instruction
system.cpu00.commit.op_class_0::FloatCvt            0      0.00%     40.01% # Class of committed instruction
system.cpu00.commit.op_class_0::FloatMult            0      0.00%     40.01% # Class of committed instruction
system.cpu00.commit.op_class_0::FloatDiv            0      0.00%     40.01% # Class of committed instruction
system.cpu00.commit.op_class_0::FloatSqrt            0      0.00%     40.01% # Class of committed instruction
system.cpu00.commit.op_class_0::SimdAdd             0      0.00%     40.01% # Class of committed instruction
system.cpu00.commit.op_class_0::SimdAddAcc            0      0.00%     40.01% # Class of committed instruction
system.cpu00.commit.op_class_0::SimdAlu             0      0.00%     40.01% # Class of committed instruction
system.cpu00.commit.op_class_0::SimdCmp             0      0.00%     40.01% # Class of committed instruction
system.cpu00.commit.op_class_0::SimdCvt             0      0.00%     40.01% # Class of committed instruction
system.cpu00.commit.op_class_0::SimdMisc            0      0.00%     40.01% # Class of committed instruction
system.cpu00.commit.op_class_0::SimdMult            0      0.00%     40.01% # Class of committed instruction
system.cpu00.commit.op_class_0::SimdMultAcc            0      0.00%     40.01% # Class of committed instruction
system.cpu00.commit.op_class_0::SimdShift            0      0.00%     40.01% # Class of committed instruction
system.cpu00.commit.op_class_0::SimdShiftAcc            0      0.00%     40.01% # Class of committed instruction
system.cpu00.commit.op_class_0::SimdSqrt            0      0.00%     40.01% # Class of committed instruction
system.cpu00.commit.op_class_0::SimdFloatAdd            0      0.00%     40.01% # Class of committed instruction
system.cpu00.commit.op_class_0::SimdFloatAlu            0      0.00%     40.01% # Class of committed instruction
system.cpu00.commit.op_class_0::SimdFloatCmp            0      0.00%     40.01% # Class of committed instruction
system.cpu00.commit.op_class_0::SimdFloatCvt            0      0.00%     40.01% # Class of committed instruction
system.cpu00.commit.op_class_0::SimdFloatDiv            0      0.00%     40.01% # Class of committed instruction
system.cpu00.commit.op_class_0::SimdFloatMisc            3      0.00%     40.01% # Class of committed instruction
system.cpu00.commit.op_class_0::SimdFloatMult            0      0.00%     40.01% # Class of committed instruction
system.cpu00.commit.op_class_0::SimdFloatMultAcc            0      0.00%     40.01% # Class of committed instruction
system.cpu00.commit.op_class_0::SimdFloatSqrt            0      0.00%     40.01% # Class of committed instruction
system.cpu00.commit.op_class_0::MemRead      82505084     39.99%     80.00% # Class of committed instruction
system.cpu00.commit.op_class_0::MemWrite     41256569     20.00%    100.00% # Class of committed instruction
system.cpu00.commit.op_class_0::IprAccess            0      0.00%    100.00% # Class of committed instruction
system.cpu00.commit.op_class_0::InstPrefetch            0      0.00%    100.00% # Class of committed instruction
system.cpu00.commit.op_class_0::total       206298506                       # Class of committed instruction
system.cpu00.commit.bw_lim_events                 119                       # number cycles where commit BW limit reached
system.cpu00.rob.rob_reads                  288850116                       # The number of ROB reads
system.cpu00.rob.rob_writes                 412615388                       # The number of ROB writes
system.cpu00.timesIdled                           257                       # Number of times that the entire CPU went into an idle state and unscheduled itself
system.cpu00.idleCycles                          7818                       # Total number of cycles that the CPU has spent unscheduled due to idling
system.cpu00.committedInsts                 206294733                       # Number of Instructions Simulated
system.cpu00.committedOps                   206298506                       # Number of Ops (including micro ops) Simulated
system.cpu00.cpi                             0.400171                       # CPI: Cycles Per Instruction
system.cpu00.cpi_total                       0.400171                       # CPI: Total CPI of All Threads
system.cpu00.ipc                             2.498933                       # IPC: Instructions Per Cycle
system.cpu00.ipc_total                       2.498933                       # IPC: Total IPC of All Threads
system.cpu00.int_regfile_reads              206301873                       # number of integer regfile reads
system.cpu00.int_regfile_writes              82530456                       # number of integer regfile writes
system.cpu00.fp_regfile_reads                    2576                       # number of floating regfile reads
system.cpu00.cc_regfile_reads               866426332                       # number of cc regfile reads
system.cpu00.cc_regfile_writes              123772854                       # number of cc regfile writes
system.cpu00.misc_regfile_reads             128690270                       # number of misc regfile reads
system.cpu00.misc_regfile_writes                   62                       # number of misc regfile writes
system.cpu00.dcache.tags.replacements             632                       # number of replacements
system.cpu00.dcache.tags.tagsinuse          70.699259                       # Cycle average of tags in use
system.cpu00.dcache.tags.total_refs          82506181                       # Total number of references to valid blocks.
system.cpu00.dcache.tags.sampled_refs             717                       # Sample count of references to valid blocks.
system.cpu00.dcache.tags.avg_refs        115071.382148                       # Average number of references to valid blocks.
system.cpu00.dcache.tags.warmup_cycle        26861000                       # Cycle when the warmup percentage was hit.
system.cpu00.dcache.tags.occ_blocks::cpu00.data    70.699259                       # Average occupied blocks per requestor
system.cpu00.dcache.tags.occ_percent::cpu00.data     0.138084                       # Average percentage of cache occupancy
system.cpu00.dcache.tags.occ_percent::total     0.138084                       # Average percentage of cache occupancy
system.cpu00.dcache.tags.occ_task_id_blocks::1024           85                       # Occupied blocks per task id
system.cpu00.dcache.tags.age_task_id_blocks_1024::0           25                       # Occupied blocks per task id
system.cpu00.dcache.tags.age_task_id_blocks_1024::4           60                       # Occupied blocks per task id
system.cpu00.dcache.tags.occ_task_id_percent::1024     0.166016                       # Percentage of cache occupancy per task id
system.cpu00.dcache.tags.tag_accesses       165025533                       # Number of tag accesses
system.cpu00.dcache.tags.data_accesses      165025533                       # Number of data accesses
system.cpu00.dcache.ReadReq_hits::cpu00.data     41255355                       # number of ReadReq hits
system.cpu00.dcache.ReadReq_hits::total      41255355                       # number of ReadReq hits
system.cpu00.dcache.WriteReq_hits::cpu00.data     41251901                       # number of WriteReq hits
system.cpu00.dcache.WriteReq_hits::total     41251901                       # number of WriteReq hits
system.cpu00.dcache.LoadLockedReq_hits::cpu00.data           27                       # number of LoadLockedReq hits
system.cpu00.dcache.LoadLockedReq_hits::total           27                       # number of LoadLockedReq hits
system.cpu00.dcache.StoreCondReq_hits::cpu00.data           28                       # number of StoreCondReq hits
system.cpu00.dcache.StoreCondReq_hits::total           28                       # number of StoreCondReq hits
system.cpu00.dcache.demand_hits::cpu00.data     82507256                       # number of demand (read+write) hits
system.cpu00.dcache.demand_hits::total       82507256                       # number of demand (read+write) hits
system.cpu00.dcache.overall_hits::cpu00.data     82507256                       # number of overall hits
system.cpu00.dcache.overall_hits::total      82507256                       # number of overall hits
system.cpu00.dcache.ReadReq_misses::cpu00.data          278                       # number of ReadReq misses
system.cpu00.dcache.ReadReq_misses::total          278                       # number of ReadReq misses
system.cpu00.dcache.WriteReq_misses::cpu00.data         4579                       # number of WriteReq misses
system.cpu00.dcache.WriteReq_misses::total         4579                       # number of WriteReq misses
system.cpu00.dcache.LoadLockedReq_misses::cpu00.data            5                       # number of LoadLockedReq misses
system.cpu00.dcache.LoadLockedReq_misses::total            5                       # number of LoadLockedReq misses
system.cpu00.dcache.StoreCondReq_misses::cpu00.data            1                       # number of StoreCondReq misses
system.cpu00.dcache.StoreCondReq_misses::total            1                       # number of StoreCondReq misses
system.cpu00.dcache.demand_misses::cpu00.data         4857                       # number of demand (read+write) misses
system.cpu00.dcache.demand_misses::total         4857                       # number of demand (read+write) misses
system.cpu00.dcache.overall_misses::cpu00.data         4857                       # number of overall misses
system.cpu00.dcache.overall_misses::total         4857                       # number of overall misses
system.cpu00.dcache.ReadReq_miss_latency::cpu00.data     10255487                       # number of ReadReq miss cycles
system.cpu00.dcache.ReadReq_miss_latency::total     10255487                       # number of ReadReq miss cycles
system.cpu00.dcache.WriteReq_miss_latency::cpu00.data    230329499                       # number of WriteReq miss cycles
system.cpu00.dcache.WriteReq_miss_latency::total    230329499                       # number of WriteReq miss cycles
system.cpu00.dcache.LoadLockedReq_miss_latency::cpu00.data       171500                       # number of LoadLockedReq miss cycles
system.cpu00.dcache.LoadLockedReq_miss_latency::total       171500                       # number of LoadLockedReq miss cycles
system.cpu00.dcache.StoreCondReq_miss_latency::cpu00.data         7500                       # number of StoreCondReq miss cycles
system.cpu00.dcache.StoreCondReq_miss_latency::total         7500                       # number of StoreCondReq miss cycles
system.cpu00.dcache.demand_miss_latency::cpu00.data    240584986                       # number of demand (read+write) miss cycles
system.cpu00.dcache.demand_miss_latency::total    240584986                       # number of demand (read+write) miss cycles
system.cpu00.dcache.overall_miss_latency::cpu00.data    240584986                       # number of overall miss cycles
system.cpu00.dcache.overall_miss_latency::total    240584986                       # number of overall miss cycles
system.cpu00.dcache.ReadReq_accesses::cpu00.data     41255633                       # number of ReadReq accesses(hits+misses)
system.cpu00.dcache.ReadReq_accesses::total     41255633                       # number of ReadReq accesses(hits+misses)
system.cpu00.dcache.WriteReq_accesses::cpu00.data     41256480                       # number of WriteReq accesses(hits+misses)
system.cpu00.dcache.WriteReq_accesses::total     41256480                       # number of WriteReq accesses(hits+misses)
system.cpu00.dcache.LoadLockedReq_accesses::cpu00.data           32                       # number of LoadLockedReq accesses(hits+misses)
system.cpu00.dcache.LoadLockedReq_accesses::total           32                       # number of LoadLockedReq accesses(hits+misses)
system.cpu00.dcache.StoreCondReq_accesses::cpu00.data           29                       # number of StoreCondReq accesses(hits+misses)
system.cpu00.dcache.StoreCondReq_accesses::total           29                       # number of StoreCondReq accesses(hits+misses)
system.cpu00.dcache.demand_accesses::cpu00.data     82512113                       # number of demand (read+write) accesses
system.cpu00.dcache.demand_accesses::total     82512113                       # number of demand (read+write) accesses
system.cpu00.dcache.overall_accesses::cpu00.data     82512113                       # number of overall (read+write) accesses
system.cpu00.dcache.overall_accesses::total     82512113                       # number of overall (read+write) accesses
system.cpu00.dcache.ReadReq_miss_rate::cpu00.data     0.000007                       # miss rate for ReadReq accesses
system.cpu00.dcache.ReadReq_miss_rate::total     0.000007                       # miss rate for ReadReq accesses
system.cpu00.dcache.WriteReq_miss_rate::cpu00.data     0.000111                       # miss rate for WriteReq accesses
system.cpu00.dcache.WriteReq_miss_rate::total     0.000111                       # miss rate for WriteReq accesses
[...]
system.tol2bus.pkt_count_system.cpu10.dcache.mem_side::system.l2.cpu_side      1797695                       # Packet count per connected master and slave (bytes)
system.tol2bus.pkt_count_system.cpu11.icache.mem_side::system.l2.cpu_side        12524                       # Packet count per connected master and slave (bytes)
system.tol2bus.pkt_count_system.cpu11.dcache.mem_side::system.l2.cpu_side      1843597                       # Packet count per connected master and slave (bytes)
system.tol2bus.pkt_count_system.cpu12.icache.mem_side::system.l2.cpu_side        10670                       # Packet count per connected master and slave (bytes)
system.tol2bus.pkt_count_system.cpu12.dcache.mem_side::system.l2.cpu_side      1803972                       # Packet count per connected master and slave (bytes)
system.tol2bus.pkt_count_system.cpu13.icache.mem_side::system.l2.cpu_side         9299                       # Packet count per connected master and slave (bytes)
system.tol2bus.pkt_count_system.cpu13.dcache.mem_side::system.l2.cpu_side      1838888                       # Packet count per connected master and slave (bytes)
system.tol2bus.pkt_count_system.cpu14.icache.mem_side::system.l2.cpu_side         6808                       # Packet count per connected master and slave (bytes)
system.tol2bus.pkt_count_system.cpu14.dcache.mem_side::system.l2.cpu_side      1876393                       # Packet count per connected master and slave (bytes)
system.tol2bus.pkt_count_system.cpu15.icache.mem_side::system.l2.cpu_side        10352                       # Packet count per connected master and slave (bytes)
system.tol2bus.pkt_count_system.cpu15.dcache.mem_side::system.l2.cpu_side      1819671                       # Packet count per connected master and slave (bytes)
system.tol2bus.pkt_count_system.cpu16.icache.mem_side::system.l2.cpu_side         6305                       # Packet count per connected master and slave (bytes)
system.tol2bus.pkt_count_system.cpu16.dcache.mem_side::system.l2.cpu_side      1356370                       # Packet count per connected master and slave (bytes)
system.tol2bus.pkt_count::total              28772820                       # Packet count per connected master and slave (bytes)
system.tol2bus.pkt_size_system.cpu00.icache.mem_side::system.l2.cpu_side        25536                       # Cumulative packet size per connected master and slave (bytes)
system.tol2bus.pkt_size_system.cpu00.dcache.mem_side::system.l2.cpu_side       109120                       # Cumulative packet size per connected master and slave (bytes)
system.tol2bus.pkt_size_system.cpu01.icache.mem_side::system.l2.cpu_side       234368                       # Cumulative packet size per connected master and slave (bytes)
system.tol2bus.pkt_size_system.cpu01.dcache.mem_side::system.l2.cpu_side      2456576                       # Cumulative packet size per connected master and slave (bytes)
system.tol2bus.pkt_size_system.cpu02.icache.mem_side::system.l2.cpu_side       249664                       # Cumulative packet size per connected master and slave (bytes)
system.tol2bus.pkt_size_system.cpu02.dcache.mem_side::system.l2.cpu_side      2084544                       # Cumulative packet size per connected master and slave (bytes)
system.tol2bus.pkt_size_system.cpu03.icache.mem_side::system.l2.cpu_side       345728                       # Cumulative packet size per connected master and slave (bytes)
system.tol2bus.pkt_size_system.cpu03.dcache.mem_side::system.l2.cpu_side      2393152                       # Cumulative packet size per connected master and slave (bytes)
system.tol2bus.pkt_size_system.cpu04.icache.mem_side::system.l2.cpu_side       212096                       # Cumulative packet size per connected master and slave (bytes)
system.tol2bus.pkt_size_system.cpu04.dcache.mem_side::system.l2.cpu_side      2476672                       # Cumulative packet size per connected master and slave (bytes)
system.tol2bus.pkt_size_system.cpu05.icache.mem_side::system.l2.cpu_side       339392                       # Cumulative packet size per connected master and slave (bytes)
system.tol2bus.pkt_size_system.cpu05.dcache.mem_side::system.l2.cpu_side      2305920                       # Cumulative packet size per connected master and slave (bytes)
system.tol2bus.pkt_size_system.cpu06.icache.mem_side::system.l2.cpu_side       278016                       # Cumulative packet size per connected master and slave (bytes)
system.tol2bus.pkt_size_system.cpu06.dcache.mem_side::system.l2.cpu_side      2387328                       # Cumulative packet size per connected master and slave (bytes)
system.tol2bus.pkt_size_system.cpu07.icache.mem_side::system.l2.cpu_side       296512                       # Cumulative packet size per connected master and slave (bytes)
system.tol2bus.pkt_size_system.cpu07.dcache.mem_side::system.l2.cpu_side      2444160                       # Cumulative packet size per connected master and slave (bytes)
system.tol2bus.pkt_size_system.cpu08.icache.mem_side::system.l2.cpu_side       302080                       # Cumulative packet size per connected master and slave (bytes)
system.tol2bus.pkt_size_system.cpu08.dcache.mem_side::system.l2.cpu_side      2316224                       # Cumulative packet size per connected master and slave (bytes)
system.tol2bus.pkt_size_system.cpu09.icache.mem_side::system.l2.cpu_side       214720                       # Cumulative packet size per connected master and slave (bytes)
system.tol2bus.pkt_size_system.cpu09.dcache.mem_side::system.l2.cpu_side      2567808                       # Cumulative packet size per connected master and slave (bytes)
system.tol2bus.pkt_size_system.cpu10.icache.mem_side::system.l2.cpu_side       332736                       # Cumulative packet size per connected master and slave (bytes)
system.tol2bus.pkt_size_system.cpu10.dcache.mem_side::system.l2.cpu_side      2462080                       # Cumulative packet size per connected master and slave (bytes)
system.tol2bus.pkt_size_system.cpu11.icache.mem_side::system.l2.cpu_side       400768                       # Cumulative packet size per connected master and slave (bytes)
system.tol2bus.pkt_size_system.cpu11.dcache.mem_side::system.l2.cpu_side      2364800                       # Cumulative packet size per connected master and slave (bytes)
system.tol2bus.pkt_size_system.cpu12.icache.mem_side::system.l2.cpu_side       341440                       # Cumulative packet size per connected master and slave (bytes)
system.tol2bus.pkt_size_system.cpu12.dcache.mem_side::system.l2.cpu_side      2608960                       # Cumulative packet size per connected master and slave (bytes)
system.tol2bus.pkt_size_system.cpu13.icache.mem_side::system.l2.cpu_side       297536                       # Cumulative packet size per connected master and slave (bytes)
system.tol2bus.pkt_size_system.cpu13.dcache.mem_side::system.l2.cpu_side      2116032                       # Cumulative packet size per connected master and slave (bytes)
system.tol2bus.pkt_size_system.cpu14.icache.mem_side::system.l2.cpu_side       217856                       # Cumulative packet size per connected master and slave (bytes)
system.tol2bus.pkt_size_system.cpu14.dcache.mem_side::system.l2.cpu_side      2355392                       # Cumulative packet size per connected master and slave (bytes)
system.tol2bus.pkt_size_system.cpu15.icache.mem_side::system.l2.cpu_side       331264                       # Cumulative packet size per connected master and slave (bytes)
system.tol2bus.pkt_size_system.cpu15.dcache.mem_side::system.l2.cpu_side      2293376                       # Cumulative packet size per connected master and slave (bytes)
system.tol2bus.pkt_size_system.cpu16.icache.mem_side::system.l2.cpu_side       201728                       # Cumulative packet size per connected master and slave (bytes)
system.tol2bus.pkt_size_system.cpu16.dcache.mem_side::system.l2.cpu_side      2228736                       # Cumulative packet size per connected master and slave (bytes)
system.tol2bus.pkt_size::total               42592320                       # Cumulative packet size per connected master and slave (bytes)
system.tol2bus.snoops                        25927122                       # Total snoops (count)
system.tol2bus.snoop_fanout::samples         27379639                       # Request fanout histogram
system.tol2bus.snoop_fanout::mean                  33                       # Request fanout histogram
system.tol2bus.snoop_fanout::stdev                  0                       # Request fanout histogram
system.tol2bus.snoop_fanout::underflows             0      0.00%      0.00% # Request fanout histogram
system.tol2bus.snoop_fanout::0                      0      0.00%      0.00% # Request fanout histogram
system.tol2bus.snoop_fanout::1                      0      0.00%      0.00% # Request fanout histogram
system.tol2bus.snoop_fanout::2                      0      0.00%      0.00% # Request fanout histogram
system.tol2bus.snoop_fanout::3                      0      0.00%      0.00% # Request fanout histogram
system.tol2bus.snoop_fanout::4                      0      0.00%      0.00% # Request fanout histogram
system.tol2bus.snoop_fanout::5                      0      0.00%      0.00% # Request fanout histogram
system.tol2bus.snoop_fanout::6                      0      0.00%      0.00% # Request fanout histogram
system.tol2bus.snoop_fanout::7                      0      0.00%      0.00% # Request fanout histogram
system.tol2bus.snoop_fanout::8                      0      0.00%      0.00% # Request fanout histogram
system.tol2bus.snoop_fanout::9                      0      0.00%      0.00% # Request fanout histogram
system.tol2bus.snoop_fanout::10                     0      0.00%      0.00% # Request fanout histogram
system.tol2bus.snoop_fanout::11                     0      0.00%      0.00% # Request fanout histogram
system.tol2bus.snoop_fanout::12                     0      0.00%      0.00% # Request fanout histogram
system.tol2bus.snoop_fanout::13                     0      0.00%      0.00% # Request fanout histogram
system.tol2bus.snoop_fanout::14                     0      0.00%      0.00% # Request fanout histogram
system.tol2bus.snoop_fanout::15                     0      0.00%      0.00% # Request fanout histogram
system.tol2bus.snoop_fanout::16                     0      0.00%      0.00% # Request fanout histogram
system.tol2bus.snoop_fanout::17                     0      0.00%      0.00% # Request fanout histogram
system.tol2bus.snoop_fanout::18                     0      0.00%      0.00% # Request fanout histogram
system.tol2bus.snoop_fanout::19                     0      0.00%      0.00% # Request fanout histogram
system.tol2bus.snoop_fanout::20                     0      0.00%      0.00% # Request fanout histogram
system.tol2bus.snoop_fanout::21                     0      0.00%      0.00% # Request fanout histogram
system.tol2bus.snoop_fanout::22                     0      0.00%      0.00% # Request fanout histogram
system.tol2bus.snoop_fanout::23                     0      0.00%      0.00% # Request fanout histogram
system.tol2bus.snoop_fanout::24                     0      0.00%      0.00% # Request fanout histogram
system.tol2bus.snoop_fanout::25                     0      0.00%      0.00% # Request fanout histogram
system.tol2bus.snoop_fanout::26                     0      0.00%      0.00% # Request fanout histogram
system.tol2bus.snoop_fanout::27                     0      0.00%      0.00% # Request fanout histogram
system.tol2bus.snoop_fanout::28                     0      0.00%      0.00% # Request fanout histogram
system.tol2bus.snoop_fanout::29                     0      0.00%      0.00% # Request fanout histogram
system.tol2bus.snoop_fanout::30                     0      0.00%      0.00% # Request fanout histogram
system.tol2bus.snoop_fanout::31                     0      0.00%      0.00% # Request fanout histogram
system.tol2bus.snoop_fanout::32                     0      0.00%      0.00% # Request fanout histogram
system.tol2bus.snoop_fanout::33              27379639    100.00%    100.00% # Request fanout histogram
system.tol2bus.snoop_fanout::34                     0      0.00%    100.00% # Request fanout histogram
system.tol2bus.snoop_fanout::overflows              0      0.00%    100.00% # Request fanout histogram
system.tol2bus.snoop_fanout::min_value             33                       # Request fanout histogram
system.tol2bus.snoop_fanout::max_value             33                       # Request fanout histogram
system.tol2bus.snoop_fanout::total           27379639                       # Request fanout histogram
system.tol2bus.reqLayer0.occupancy        13869676770                       # Layer occupancy (ticks)
system.tol2bus.reqLayer0.utilization             16.8                       # Layer utilization (%)
system.tol2bus.respLayer0.occupancy            598999                       # Layer occupancy (ticks)
system.tol2bus.respLayer0.utilization             0.0                       # Layer utilization (%)
system.tol2bus.respLayer1.occupancy           1785491                       # Layer occupancy (ticks)
system.tol2bus.respLayer1.utilization             0.0                       # Layer utilization (%)
system.tol2bus.respLayer4.occupancy           5518428                       # Layer occupancy (ticks)
system.tol2bus.respLayer4.utilization             0.0                       # Layer utilization (%)
system.tol2bus.respLayer5.occupancy        2996881083                       # Layer occupancy (ticks)
system.tol2bus.respLayer5.utilization             3.6                       # Layer utilization (%)
system.tol2bus.respLayer8.occupancy           5863469                       # Layer occupancy (ticks)
system.tol2bus.respLayer8.utilization             0.0                       # Layer utilization (%)
system.tol2bus.respLayer9.occupancy        2728744818                       # Layer occupancy (ticks)
system.tol2bus.respLayer9.utilization             3.3                       # Layer utilization (%)
system.tol2bus.respLayer12.occupancy          8123427                       # Layer occupancy (ticks)
system.tol2bus.respLayer12.utilization            0.0                       # Layer utilization (%)
system.tol2bus.respLayer13.occupancy       2846921762                       # Layer occupancy (ticks)
system.tol2bus.respLayer13.utilization            3.4                       # Layer utilization (%)
system.tol2bus.respLayer16.occupancy          4994933                       # Layer occupancy (ticks)
system.tol2bus.respLayer16.utilization            0.0                       # Layer utilization (%)
system.tol2bus.respLayer17.occupancy       2901990537                       # Layer occupancy (ticks)
system.tol2bus.respLayer17.utilization            3.5                       # Layer utilization (%)
system.tol2bus.respLayer20.occupancy          7959988                       # Layer occupancy (ticks)
system.tol2bus.respLayer20.utilization            0.0                       # Layer utilization (%)
system.tol2bus.respLayer21.occupancy       2748541446                       # Layer occupancy (ticks)
system.tol2bus.respLayer21.utilization            3.3                       # Layer utilization (%)
system.tol2bus.respLayer24.occupancy          6526975                       # Layer occupancy (ticks)
system.tol2bus.respLayer24.utilization            0.0                       # Layer utilization (%)
system.tol2bus.respLayer25.occupancy       2848036128                       # Layer occupancy (ticks)
system.tol2bus.respLayer25.utilization            3.4                       # Layer utilization (%)
system.tol2bus.respLayer28.occupancy          6955352                       # Layer occupancy (ticks)
system.tol2bus.respLayer28.utilization            0.0                       # Layer utilization (%)
system.tol2bus.respLayer29.occupancy       2866248078                       # Layer occupancy (ticks)
system.tol2bus.respLayer29.utilization            3.5                       # Layer utilization (%)
system.tol2bus.respLayer32.occupancy          7083487                       # Layer occupancy (ticks)
system.tol2bus.respLayer32.utilization            0.0                       # Layer utilization (%)
system.tol2bus.respLayer33.occupancy       2967403541                       # Layer occupancy (ticks)
system.tol2bus.respLayer33.utilization            3.6                       # Layer utilization (%)
system.tol2bus.respLayer36.occupancy          5033492                       # Layer occupancy (ticks)
system.tol2bus.respLayer36.utilization            0.0                       # Layer utilization (%)
system.tol2bus.respLayer37.occupancy       2989546917                       # Layer occupancy (ticks)
system.tol2bus.respLayer37.utilization            3.6                       # Layer utilization (%)
system.tol2bus.respLayer40.occupancy          7802985                       # Layer occupancy (ticks)
system.tol2bus.respLayer40.utilization            0.0                       # Layer utilization (%)
system.tol2bus.respLayer41.occupancy       2840863932                       # Layer occupancy (ticks)
system.tol2bus.respLayer41.utilization            3.4                       # Layer utilization (%)
system.tol2bus.respLayer44.occupancy          9396484                       # Layer occupancy (ticks)
system.tol2bus.respLayer44.utilization            0.0                       # Layer utilization (%)
system.tol2bus.respLayer45.occupancy       2926047124                       # Layer occupancy (ticks)
system.tol2bus.respLayer45.utilization            3.5                       # Layer utilization (%)
system.tol2bus.respLayer48.occupancy          8012959                       # Layer occupancy (ticks)
system.tol2bus.respLayer48.utilization            0.0                       # Layer utilization (%)
system.tol2bus.respLayer49.occupancy       2831787706                       # Layer occupancy (ticks)
system.tol2bus.respLayer49.utilization            3.4                       # Layer utilization (%)
system.tol2bus.respLayer52.occupancy          6978494                       # Layer occupancy (ticks)
system.tol2bus.respLayer52.utilization            0.0                       # Layer utilization (%)
system.tol2bus.respLayer53.occupancy       2943105601                       # Layer occupancy (ticks)
system.tol2bus.respLayer53.utilization            3.6                       # Layer utilization (%)
system.tol2bus.respLayer56.occupancy          5111980                       # Layer occupancy (ticks)
system.tol2bus.respLayer56.utilization            0.0                       # Layer utilization (%)
system.tol2bus.respLayer57.occupancy       2992246913                       # Layer occupancy (ticks)
system.tol2bus.respLayer57.utilization            3.6                       # Layer utilization (%)
system.tol2bus.respLayer60.occupancy          7768982                       # Layer occupancy (ticks)
system.tol2bus.respLayer60.utilization            0.0                       # Layer utilization (%)
system.tol2bus.respLayer61.occupancy       2888165613                       # Layer occupancy (ticks)
system.tol2bus.respLayer61.utilization            3.5                       # Layer utilization (%)
system.tol2bus.respLayer64.occupancy          4739462                       # Layer occupancy (ticks)
system.tol2bus.respLayer64.utilization            0.0                       # Layer utilization (%)
system.tol2bus.respLayer65.occupancy       2104107041                       # Layer occupancy (ticks)
system.tol2bus.respLayer65.utilization            2.5                       # Layer utilization (%)

---------- End Simulation Statistics   ----------
