
---------- Begin Simulation Statistics ----------
sim_seconds                                  0.018619                       # Number of seconds simulated
sim_ticks                                 18618839000                       # Number of ticks simulated
final_tick                                18618839000                       # Number of ticks from beginning of simulation (restored from checkpoints and never reset)
sim_freq                                 1000000000000                       # Frequency of simulated ticks
host_inst_rate                                 146298                       # Simulator instruction rate (inst/s)
host_op_rate                                   147523                       # Simulator op (including micro ops) rate (op/s)
host_tick_rate                                9146134                       # Simulator tick rate (ticks/s)
host_mem_usage                                 886124                       # Number of bytes of host memory used
host_seconds                                  2035.71                       # Real time elapsed on the host
sim_insts                                   297819084                       # Number of instructions simulated
sim_ops                                     300313867                       # Number of ops (including micro ops) simulated
system.voltage_domain.voltage                       1                       # Voltage in Volts
system.clk_domain.clock                          1000                       # Clock period in ticks
system.physmem.bytes_read::cpu00.inst           22848                       # Number of bytes read from this memory
system.physmem.bytes_read::cpu00.data           68800                       # Number of bytes read from this memory
system.physmem.bytes_read::cpu01.inst            5184                       # Number of bytes read from this memory
system.physmem.bytes_read::cpu01.data            6016                       # Number of bytes read from this memory
system.physmem.bytes_read::cpu02.inst            1280                       # Number of bytes read from this memory
system.physmem.bytes_read::cpu02.data           10880                       # Number of bytes read from this memory
system.physmem.bytes_read::cpu03.inst            2560                       # Number of bytes read from this memory
system.physmem.bytes_read::cpu03.data            6592                       # Number of bytes read from this memory
system.physmem.bytes_read::cpu04.inst            2624                       # Number of bytes read from this memory
system.physmem.bytes_read::cpu04.data            7936                       # Number of bytes read from this memory
system.physmem.bytes_read::cpu05.inst            2496                       # Number of bytes read from this memory
system.physmem.bytes_read::cpu05.data            7360                       # Number of bytes read from this memory
system.physmem.bytes_read::cpu06.inst            1856                       # Number of bytes read from this memory
system.physmem.bytes_read::cpu06.data           19072                       # Number of bytes read from this memory
system.physmem.bytes_read::cpu07.inst            1344                       # Number of bytes read from this memory
system.physmem.bytes_read::cpu07.data           22400                       # Number of bytes read from this memory
system.physmem.bytes_read::cpu08.inst            2752                       # Number of bytes read from this memory
system.physmem.bytes_read::cpu08.data           22016                       # Number of bytes read from this memory
system.physmem.bytes_read::cpu09.inst            1408                       # Number of bytes read from this memory
system.physmem.bytes_read::cpu09.data           17728                       # Number of bytes read from this memory
system.physmem.bytes_read::cpu10.inst            1408                       # Number of bytes read from this memory
system.physmem.bytes_read::cpu10.data            8448                       # Number of bytes read from this memory
system.physmem.bytes_read::cpu11.inst             320                       # Number of bytes read from this memory
system.physmem.bytes_read::cpu11.data            7616                       # Number of bytes read from this memory
system.physmem.bytes_read::cpu12.inst             704                       # Number of bytes read from this memory
system.physmem.bytes_read::cpu12.data            7744                       # Number of bytes read from this memory
system.physmem.bytes_read::cpu13.inst             704                       # Number of bytes read from this memory
system.physmem.bytes_read::cpu13.data            8960                       # Number of bytes read from this memory
system.physmem.bytes_read::cpu14.inst            1088                       # Number of bytes read from this memory
system.physmem.bytes_read::cpu14.data           11072                       # Number of bytes read from this memory
system.physmem.bytes_read::cpu15.inst            3776                       # Number of bytes read from this memory
system.physmem.bytes_read::cpu15.data           10240                       # Number of bytes read from this memory
system.physmem.bytes_read::cpu16.inst            3712                       # Number of bytes read from this memory
system.physmem.bytes_read::cpu16.data            5504                       # Number of bytes read from this memory
system.physmem.bytes_read::total               304448                       # Number of bytes read from this memory
system.physmem.bytes_inst_read::cpu00.inst        22848                       # Number of instructions bytes read from this memory
system.physmem.bytes_inst_read::cpu01.inst         5184                       # Number of instructions bytes read from this memory
system.physmem.bytes_inst_read::cpu02.inst         1280                       # Number of instructions bytes read from this memory
system.physmem.bytes_inst_read::cpu03.inst         2560                       # Number of instructions bytes read from this memory
system.physmem.bytes_inst_read::cpu04.inst         2624                       # Number of instructions bytes read from this memory
system.physmem.bytes_inst_read::cpu05.inst         2496                       # Number of instructions bytes read from this memory
system.physmem.bytes_inst_read::cpu06.inst         1856                       # Number of instructions bytes read from this memory
system.physmem.bytes_inst_read::cpu07.inst         1344                       # Number of instructions bytes read from this memory
system.physmem.bytes_inst_read::cpu08.inst         2752                       # Number of instructions bytes read from this memory
system.physmem.bytes_inst_read::cpu09.inst         1408                       # Number of instructions bytes read from this memory
system.physmem.bytes_inst_read::cpu10.inst         1408                       # Number of instructions bytes read from this memory
system.physmem.bytes_inst_read::cpu11.inst          320                       # Number of instructions bytes read from this memory
system.physmem.bytes_inst_read::cpu12.inst          704                       # Number of instructions bytes read from this memory
system.physmem.bytes_inst_read::cpu13.inst          704                       # Number of instructions bytes read from this memory
system.physmem.bytes_inst_read::cpu14.inst         1088                       # Number of instructions bytes read from this memory
system.physmem.bytes_inst_read::cpu15.inst         3776                       # Number of instructions bytes read from this memory
system.physmem.bytes_inst_read::cpu16.inst         3712                       # Number of instructions bytes read from this memory
system.physmem.bytes_inst_read::total           56064                       # Number of instructions bytes read from this memory
system.physmem.bytes_written::writebacks         8000                       # Number of bytes written to this memory
system.physmem.bytes_written::total              8000                       # Number of bytes written to this memory
system.physmem.num_reads::cpu00.inst              357                       # Number of read requests responded to by this memory
system.physmem.num_reads::cpu00.data             1075                       # Number of read requests responded to by this memory
system.physmem.num_reads::cpu01.inst               81                       # Number of read requests responded to by this memory
system.physmem.num_reads::cpu01.data               94                       # Number of read requests responded to by this memory
system.physmem.num_reads::cpu02.inst               20                       # Number of read requests responded to by this memory
system.physmem.num_reads::cpu02.data              170                       # Number of read requests responded to by this memory
system.physmem.num_reads::cpu03.inst               40                       # Number of read requests responded to by this memory
system.physmem.num_reads::cpu03.data              103                       # Number of read requests responded to by this memory
system.physmem.num_reads::cpu04.inst               41                       # Number of read requests responded to by this memory
system.physmem.num_reads::cpu04.data              124                       # Number of read requests responded to by this memory
system.physmem.num_reads::cpu05.inst               39                       # Number of read requests responded to by this memory
system.physmem.num_reads::cpu05.data              115                       # Number of read requests responded to by this memory
system.physmem.num_reads::cpu06.inst               29                       # Number of read requests responded to by this memory
system.physmem.num_reads::cpu06.data              298                       # Number of read requests responded to by this memory
system.physmem.num_reads::cpu07.inst               21                       # Number of read requests responded to by this memory
system.physmem.num_reads::cpu07.data              350                       # Number of read requests responded to by this memory
system.physmem.num_reads::cpu08.inst               43                       # Number of read requests responded to by this memory
system.physmem.num_reads::cpu08.data              344                       # Number of read requests responded to by this memory
system.physmem.num_reads::cpu09.inst               22                       # Number of read requests responded to by this memory
system.physmem.num_reads::cpu09.data              277                       # Number of read requests responded to by this memory
system.physmem.num_reads::cpu10.inst               22                       # Number of read requests responded to by this memory
system.physmem.num_reads::cpu10.data              132                       # Number of read requests responded to by this memory
system.physmem.num_reads::cpu11.inst                5                       # Number of read requests responded to by this memory
system.physmem.num_reads::cpu11.data              119                       # Number of read requests responded to by this memory
system.physmem.num_reads::cpu12.inst               11                       # Number of read requests responded to by this memory
system.physmem.num_reads::cpu12.data              121                       # Number of read requests responded to by this memory
system.physmem.num_reads::cpu13.inst               11                       # Number of read requests responded to by this memory
system.physmem.num_reads::cpu13.data              140                       # Number of read requests responded to by this memory
system.physmem.num_reads::cpu14.inst               17                       # Number of read requests responded to by this memory
system.physmem.num_reads::cpu14.data              173                       # Number of read requests responded to by this memory
system.physmem.num_reads::cpu15.inst               59                       # Number of read requests responded to by this memory
system.physmem.num_reads::cpu15.data              160                       # Number of read requests responded to by this memory
system.physmem.num_reads::cpu16.inst               58                       # Number of read requests responded to by this memory
system.physmem.num_reads::cpu16.data               86                       # Number of read requests responded to by this memory
system.physmem.num_reads::total                  4757                       # Number of read requests responded to by this memory
system.physmem.num_writes::writebacks             125                       # Number of write requests responded to by this memory
system.physmem.num_writes::total                  125                       # Number of write requests responded to by this memory
system.physmem.bw_read::cpu00.inst            1227144                       # Total read bandwidth from this memory (bytes/s)
system.physmem.bw_read::cpu00.data            3695182                       # Total read bandwidth from this memory (bytes/s)
system.physmem.bw_read::cpu01.inst             278428                       # Total read bandwidth from this memory (bytes/s)
system.physmem.bw_read::cpu01.data             323114                       # Total read bandwidth from this memory (bytes/s)
system.physmem.bw_read::cpu02.inst              68748                       # Total read bandwidth from this memory (bytes/s)
system.physmem.bw_read::cpu02.data             584354                       # Total read bandwidth from this memory (bytes/s)
system.physmem.bw_read::cpu03.inst             137495                       # Total read bandwidth from this memory (bytes/s)
system.physmem.bw_read::cpu03.data             354050                       # Total read bandwidth from this memory (bytes/s)
system.physmem.bw_read::cpu04.inst             140933                       # Total read bandwidth from this memory (bytes/s)
system.physmem.bw_read::cpu04.data             426235                       # Total read bandwidth from this memory (bytes/s)
system.physmem.bw_read::cpu05.inst             134058                       # Total read bandwidth from this memory (bytes/s)
system.physmem.bw_read::cpu05.data             395299                       # Total read bandwidth from this memory (bytes/s)
system.physmem.bw_read::cpu06.inst              99684                       # Total read bandwidth from this memory (bytes/s)
system.physmem.bw_read::cpu06.data            1024339                       # Total read bandwidth from this memory (bytes/s)
system.physmem.bw_read::cpu07.inst              72185                       # Total read bandwidth from this memory (bytes/s)
system.physmem.bw_read::cpu07.data            1203083                       # Total read bandwidth from this memory (bytes/s)
system.physmem.bw_read::cpu08.inst             147807                       # Total read bandwidth from this memory (bytes/s)
system.physmem.bw_read::cpu08.data            1182458                       # Total read bandwidth from this memory (bytes/s)
system.physmem.bw_read::cpu09.inst              75622                       # Total read bandwidth from this memory (bytes/s)
system.physmem.bw_read::cpu09.data             952154                       # Total read bandwidth from this memory (bytes/s)
system.physmem.bw_read::cpu10.inst              75622                       # Total read bandwidth from this memory (bytes/s)
system.physmem.bw_read::cpu10.data             453734                       # Total read bandwidth from this memory (bytes/s)
system.physmem.bw_read::cpu11.inst              17187                       # Total read bandwidth from this memory (bytes/s)
system.physmem.bw_read::cpu11.data             409048                       # Total read bandwidth from this memory (bytes/s)
system.physmem.bw_read::cpu12.inst              37811                       # Total read bandwidth from this memory (bytes/s)
system.physmem.bw_read::cpu12.data             415923                       # Total read bandwidth from this memory (bytes/s)
system.physmem.bw_read::cpu13.inst              37811                       # Total read bandwidth from this memory (bytes/s)
system.physmem.bw_read::cpu13.data             481233                       # Total read bandwidth from this memory (bytes/s)
system.physmem.bw_read::cpu14.inst              58435                       # Total read bandwidth from this memory (bytes/s)
system.physmem.bw_read::cpu14.data             594667                       # Total read bandwidth from this memory (bytes/s)
system.physmem.bw_read::cpu15.inst             202805                       # Total read bandwidth from this memory (bytes/s)
system.physmem.bw_read::cpu15.data             549981                       # Total read bandwidth from this memory (bytes/s)
system.physmem.bw_read::cpu16.inst             199368                       # Total read bandwidth from this memory (bytes/s)
system.physmem.bw_read::cpu16.data             295615                       # Total read bandwidth from this memory (bytes/s)
system.physmem.bw_read::total                16351610                       # Total read bandwidth from this memory (bytes/s)
system.physmem.bw_inst_read::cpu00.inst       1227144                       # Instruction read bandwidth from this memory (bytes/s)
system.physmem.bw_inst_read::cpu01.inst        278428                       # Instruction read bandwidth from this memory (bytes/s)
system.physmem.bw_inst_read::cpu02.inst         68748                       # Instruction read bandwidth from this memory (bytes/s)
system.physmem.bw_inst_read::cpu03.inst        137495                       # Instruction read bandwidth from this memory (bytes/s)
system.physmem.bw_inst_read::cpu04.inst        140933                       # Instruction read bandwidth from this memory (bytes/s)
system.physmem.bw_inst_read::cpu05.inst        134058                       # Instruction read bandwidth from this memory (bytes/s)
system.physmem.bw_inst_read::cpu06.inst         99684                       # Instruction read bandwidth from this memory (bytes/s)
system.physmem.bw_inst_read::cpu07.inst         72185                       # Instruction read bandwidth from this memory (bytes/s)
system.physmem.bw_inst_read::cpu08.inst        147807                       # Instruction read bandwidth from this memory (bytes/s)
system.physmem.bw_inst_read::cpu09.inst         75622                       # Instruction read bandwidth from this memory (bytes/s)
system.physmem.bw_inst_read::cpu10.inst         75622                       # Instruction read bandwidth from this memory (bytes/s)
system.physmem.bw_inst_read::cpu11.inst         17187                       # Instruction read bandwidth from this memory (bytes/s)
system.physmem.bw_inst_read::cpu12.inst         37811                       # Instruction read bandwidth from this memory (bytes/s)
system.physmem.bw_inst_read::cpu13.inst         37811                       # Instruction read bandwidth from this memory (bytes/s)
system.physmem.bw_inst_read::cpu14.inst         58435                       # Instruction read bandwidth from this memory (bytes/s)
system.physmem.bw_inst_read::cpu15.inst        202805                       # Instruction read bandwidth from this memory (bytes/s)
system.physmem.bw_inst_read::cpu16.inst        199368                       # Instruction read bandwidth from this memory (bytes/s)
system.physmem.bw_inst_read::total            3011144                       # Instruction read bandwidth from this memory (bytes/s)
system.physmem.bw_write::writebacks            429672                       # Write bandwidth from this memory (bytes/s)
system.physmem.bw_write::total                 429672                       # Write bandwidth from this memory (bytes/s)
system.physmem.bw_total::writebacks            429672                       # Total bandwidth to/from this memory (bytes/s)
system.physmem.bw_total::cpu00.inst           1227144                       # Total bandwidth to/from this memory (bytes/s)
system.physmem.bw_total::cpu00.data           3695182                       # Total bandwidth to/from this memory (bytes/s)
system.physmem.bw_total::cpu01.inst            278428                       # Total bandwidth to/from this memory (bytes/s)
system.physmem.bw_total::cpu01.data            323114                       # Total bandwidth to/from this memory (bytes/s)
system.physmem.bw_total::cpu02.inst             68748                       # Total bandwidth to/from this memory (bytes/s)
system.physmem.bw_total::cpu02.data            584354                       # Total bandwidth to/from this memory (bytes/s)
system.physmem.bw_total::cpu03.inst            137495                       # Total bandwidth to/from this memory (bytes/s)
system.physmem.bw_total::cpu03.data            354050                       # Total bandwidth to/from this memory (bytes/s)
system.physmem.bw_total::cpu04.inst            140933                       # Total bandwidth to/from this memory (bytes/s)
system.physmem.bw_total::cpu04.data            426235                       # Total bandwidth to/from this memory (bytes/s)
system.physmem.bw_total::cpu05.inst            134058                       # Total bandwidth to/from this memory (bytes/s)
system.physmem.bw_total::cpu05.data            395299                       # Total bandwidth to/from this memory (bytes/s)
system.physmem.bw_total::cpu06.inst             99684                       # Total bandwidth to/from this memory (bytes/s)
system.physmem.bw_total::cpu06.data           1024339                       # Total bandwidth to/from this memory (bytes/s)
system.physmem.bw_total::cpu07.inst             72185                       # Total bandwidth to/from this memory (bytes/s)
system.physmem.bw_total::cpu07.data           1203083                       # Total bandwidth to/from this memory (bytes/s)
system.physmem.bw_total::cpu08.inst            147807                       # Total bandwidth to/from this memory (bytes/s)
system.physmem.bw_total::cpu08.data           1182458                       # Total bandwidth to/from this memory (bytes/s)
system.physmem.bw_total::cpu09.inst             75622                       # Total bandwidth to/from this memory (bytes/s)
system.physmem.bw_total::cpu09.data            952154                       # Total bandwidth to/from this memory (bytes/s)
system.physmem.bw_total::cpu10.inst             75622                       # Total bandwidth to/from this memory (bytes/s)
system.physmem.bw_total::cpu10.data            453734                       # Total bandwidth to/from this memory (bytes/s)
system.physmem.bw_total::cpu11.inst             17187                       # Total bandwidth to/from this memory (bytes/s)
system.physmem.bw_total::cpu11.data            409048                       # Total bandwidth to/from this memory (bytes/s)
system.physmem.bw_total::cpu12.inst             37811                       # Total bandwidth to/from this memory (bytes/s)
system.physmem.bw_total::cpu12.data            415923                       # Total bandwidth to/from this memory (bytes/s)
system.physmem.bw_total::cpu13.inst             37811                       # Total bandwidth to/from this memory (bytes/s)
system.physmem.bw_total::cpu13.data            481233                       # Total bandwidth to/from this memory (bytes/s)
system.physmem.bw_total::cpu14.inst             58435                       # Total bandwidth to/from this memory (bytes/s)
system.physmem.bw_total::cpu14.data            594667                       # Total bandwidth to/from this memory (bytes/s)
system.physmem.bw_total::cpu15.inst            202805                       # Total bandwidth to/from this memory (bytes/s)
system.physmem.bw_total::cpu15.data            549981                       # Total bandwidth to/from this memory (bytes/s)
system.physmem.bw_total::cpu16.inst            199368                       # Total bandwidth to/from this memory (bytes/s)
system.physmem.bw_total::cpu16.data            295615                       # Total bandwidth to/from this memory (bytes/s)
system.physmem.bw_total::total               16781283                       # Total bandwidth to/from this memory (bytes/s)
system.cpu00.branchPred.lookups               9296753                       # Number of BP lookups
system.cpu00.branchPred.condPredicted         9291059                       # Number of conditional branches predicted
system.cpu00.branchPred.condIncorrect             868                       # Number of conditional branches incorrect
system.cpu00.branchPred.BTBLookups            9289722                       # Number of BTB lookups
system.cpu00.branchPred.BTBHits               9289179                       # Number of BTB hits
system.cpu00.branchPred.BTBCorrect                  0                       # Number of correct BTB predictions (this stat may not work properly.
system.cpu00.branchPred.BTBHitPct           99.994155                       # BTB Hit Percentage
system.cpu00.branchPred.usedRAS                  2631                       # Number of times the RAS was used to get a target.
system.cpu00.branchPred.RASInCorrect               63                       # Number of incorrect RAS predictions.
system.cpu00.dstage2_mmu.stage2_tlb.walker.walks            0                       # Table walker walks requested
system.cpu00.dstage2_mmu.stage2_tlb.walker.walkRequestOrigin_Requested::Data            0                       # Table walker requests started/completed, data/inst
system.cpu00.dstage2_mmu.stage2_tlb.walker.walkRequestOrigin_Requested::Inst            0                       # Table walker requests started/completed, data/inst
system.cpu00.dstage2_mmu.stage2_tlb.walker.walkRequestOrigin_Requested::total            0                       # Table walker requests started/completed, data/inst
system.cpu00.dstage2_mmu.stage2_tlb.walker.walkRequestOrigin_Completed::Data            0                       # Table walker requests started/completed, data/inst
system.cpu00.dstage2_mmu.stage2_tlb.walker.walkRequestOrigin_Completed::Inst            0                       # Table walker requests started/completed, data/inst
system.cpu00.dstage2_mmu.stage2_tlb.walker.walkRequestOrigin_Completed::total            0                       # Table walker requests started/completed, data/inst
system.cpu00.dstage2_mmu.stage2_tlb.walker.walkRequestOrigin::total            0                       # Table walker requests started/completed, data/inst
system.cpu00.dstage2_mmu.stage2_tlb.inst_hits            0                       # ITB inst hits
system.cpu00.dstage2_mmu.stage2_tlb.inst_misses            0                       # ITB inst misses
system.cpu00.dstage2_mmu.stage2_tlb.read_hits            0                       # DTB read hits
system.cpu00.dstage2_mmu.stage2_tlb.read_misses            0                       # DTB read misses
system.cpu00.dstage2_mmu.stage2_tlb.write_hits            0                       # DTB write hits
system.cpu00.dstage2_mmu.stage2_tlb.write_misses            0                       # DTB write misses
system.cpu00.dstage2_mmu.stage2_tlb.flush_tlb            0                       # Number of times complete TLB was flushed
system.cpu00.dstage2_mmu.stage2_tlb.flush_tlb_mva            0                       # Number of times TLB was flushed by MVA
system.cpu00.dstage2_mmu.stage2_tlb.flush_tlb_mva_asid            0                       # Number of times TLB was flushed by MVA & ASID
system.cpu00.dstage2_mmu.stage2_tlb.flush_tlb_asid            0                       # Number of times TLB was flushed by ASID
system.cpu00.dstage2_mmu.stage2_tlb.flush_entries            0                       # Number of entries that have been flushed from TLB
system.cpu00.dstage2_mmu.stage2_tlb.align_faults            0                       # Number of TLB faults due to alignment restrictions
system.cpu00.dstage2_mmu.stage2_tlb.prefetch_faults            0                       # Number of TLB faults due to prefetch
system.cpu00.dstage2_mmu.stage2_tlb.domain_faults            0                       # Number of TLB faults due to domain restrictions
system.cpu00.dstage2_mmu.stage2_tlb.perms_faults            0                       # Number of TLB faults due to permissions restrictions
system.cpu00.dstage2_mmu.stage2_tlb.read_accesses            0                       # DTB read accesses
system.cpu00.dstage2_mmu.stage2_tlb.write_accesses            0                       # DTB write accesses
system.cpu00.dstage2_mmu.stage2_tlb.inst_accesses            0                       # ITB inst accesses
system.cpu00.dstage2_mmu.stage2_tlb.hits            0                       # DTB hits
system.cpu00.dstage2_mmu.stage2_tlb.misses            0                       # DTB misses
system.cpu00.dstage2_mmu.stage2_tlb.accesses            0                       # DTB accesses
system.cpu00.dtb.walker.walks                       0                       # Table walker walks requested
system.cpu00.dtb.walker.walkRequestOrigin_Requested::Data            0                       # Table walker requests started/completed, data/inst
system.cpu00.dtb.walker.walkRequestOrigin_Requested::Inst            0                       # Table walker requests started/completed, data/inst
system.cpu00.dtb.walker.walkRequestOrigin_Requested::total            0                       # Table walker requests started/completed, data/inst
system.cpu00.dtb.walker.walkRequestOrigin_Completed::Data            0                       # Table walker requests started/completed, data/inst
system.cpu00.dtb.walker.walkRequestOrigin_Completed::Inst            0                       # Table walker requests started/completed, data/inst
system.cpu00.dtb.walker.walkRequestOrigin_Completed::total            0                       # Table walker requests started/completed, data/inst
system.cpu00.dtb.walker.walkRequestOrigin::total            0                       # Table walker requests started/completed, data/inst
system.cpu00.dtb.inst_hits                          0                       # ITB inst hits
system.cpu00.dtb.inst_misses                        0                       # ITB inst misses
system.cpu00.dtb.read_hits                          0                       # DTB read hits
system.cpu00.dtb.read_misses                        0                       # DTB read misses
system.cpu00.dtb.write_hits                         0                       # DTB write hits
system.cpu00.dtb.write_misses                       0                       # DTB write misses
system.cpu00.dtb.flush_tlb                          0                       # Number of times complete TLB was flushed
system.cpu00.dtb.flush_tlb_mva                      0                       # Number of times TLB was flushed by MVA
system.cpu00.dtb.flush_tlb_mva_asid                 0                       # Number of times TLB was flushed by MVA & ASID
system.cpu00.dtb.flush_tlb_asid                     0                       # Number of times TLB was flushed by ASID
system.cpu00.dtb.flush_entries                      0                       # Number of entries that have been flushed from TLB
system.cpu00.dtb.align_faults                       0                       # Number of TLB faults due to alignment restrictions
system.cpu00.dtb.prefetch_faults                    0                       # Number of TLB faults due to prefetch
system.cpu00.dtb.domain_faults                      0                       # Number of TLB faults due to domain restrictions
system.cpu00.dtb.perms_faults                       0                       # Number of TLB faults due to permissions restrictions
system.cpu00.dtb.read_accesses                      0                       # DTB read accesses
system.cpu00.dtb.write_accesses                     0                       # DTB write accesses
system.cpu00.dtb.inst_accesses                      0                       # ITB inst accesses
system.cpu00.dtb.hits                               0                       # DTB hits
system.cpu00.dtb.misses                             0                       # DTB misses
system.cpu00.dtb.accesses                           0                       # DTB accesses
system.cpu00.istage2_mmu.stage2_tlb.walker.walks            0                       # Table walker walks requested
system.cpu00.istage2_mmu.stage2_tlb.walker.walkRequestOrigin_Requested::Data            0                       # Table walker requests started/completed, data/inst
system.cpu00.istage2_mmu.stage2_tlb.walker.walkRequestOrigin_Requested::Inst            0                       # Table walker requests started/completed, data/inst
system.cpu00.istage2_mmu.stage2_tlb.walker.walkRequestOrigin_Requested::total            0                       # Table walker requests started/completed, data/inst
system.cpu00.istage2_mmu.stage2_tlb.walker.walkRequestOrigin_Completed::Data            0                       # Table walker requests started/completed, data/inst
system.cpu00.istage2_mmu.stage2_tlb.walker.walkRequestOrigin_Completed::Inst            0                       # Table walker requests started/completed, data/inst
system.cpu00.istage2_mmu.stage2_tlb.walker.walkRequestOrigin_Completed::total            0                       # Table walker requests started/completed, data/inst
system.cpu00.istage2_mmu.stage2_tlb.walker.walkRequestOrigin::total            0                       # Table walker requests started/completed, data/inst
system.cpu00.istage2_mmu.stage2_tlb.inst_hits            0                       # ITB inst hits
system.cpu00.istage2_mmu.stage2_tlb.inst_misses            0                       # ITB inst misses
system.cpu00.istage2_mmu.stage2_tlb.read_hits            0                       # DTB read hits
system.cpu00.istage2_mmu.stage2_tlb.read_misses            0                       # DTB read misses
system.cpu00.istage2_mmu.stage2_tlb.write_hits            0                       # DTB write hits
system.cpu00.istage2_mmu.stage2_tlb.write_misses            0                       # DTB write misses
system.cpu00.istage2_mmu.stage2_tlb.flush_tlb            0                       # Number of times complete TLB was flushed
system.cpu00.istage2_mmu.stage2_tlb.flush_tlb_mva            0                       # Number of times TLB was flushed by MVA
system.cpu00.istage2_mmu.stage2_tlb.flush_tlb_mva_asid            0                       # Number of times TLB was flushed by MVA & ASID
system.cpu00.istage2_mmu.stage2_tlb.flush_tlb_asid            0                       # Number of times TLB was flushed by ASID
system.cpu00.istage2_mmu.stage2_tlb.flush_entries            0                       # Number of entries that have been flushed from TLB
system.cpu00.istage2_mmu.stage2_tlb.align_faults            0                       # Number of TLB faults due to alignment restrictions
system.cpu00.istage2_mmu.stage2_tlb.prefetch_faults            0                       # Number of TLB faults due to prefetch
system.cpu00.istage2_mmu.stage2_tlb.domain_faults            0                       # Number of TLB faults due to domain restrictions
system.cpu00.istage2_mmu.stage2_tlb.perms_faults            0                       # Number of TLB faults due to permissions restrictions
system.cpu00.istage2_mmu.stage2_tlb.read_accesses            0                       # DTB read accesses
system.cpu00.istage2_mmu.stage2_tlb.write_accesses            0                       # DTB write accesses
system.cpu00.istage2_mmu.stage2_tlb.inst_accesses            0                       # ITB inst accesses
system.cpu00.istage2_mmu.stage2_tlb.hits            0                       # DTB hits
system.cpu00.istage2_mmu.stage2_tlb.misses            0                       # DTB misses
system.cpu00.istage2_mmu.stage2_tlb.accesses            0                       # DTB accesses
system.cpu00.itb.walker.walks                       0                       # Table walker walks requested
system.cpu00.itb.walker.walkRequestOrigin_Requested::Data            0                       # Table walker requests started/completed, data/inst
system.cpu00.itb.walker.walkRequestOrigin_Requested::Inst            0                       # Table walker requests started/completed, data/inst
system.cpu00.itb.walker.walkRequestOrigin_Requested::total            0                       # Table walker requests started/completed, data/inst
system.cpu00.itb.walker.walkRequestOrigin_Completed::Data            0                       # Table walker requests started/completed, data/inst
system.cpu00.itb.walker.walkRequestOrigin_Completed::Inst            0                       # Table walker requests started/completed, data/inst
system.cpu00.itb.walker.walkRequestOrigin_Completed::total            0                       # Table walker requests started/completed, data/inst
system.cpu00.itb.walker.walkRequestOrigin::total            0                       # Table walker requests started/completed, data/inst
system.cpu00.itb.inst_hits                          0                       # ITB inst hits
system.cpu00.itb.inst_misses                        0                       # ITB inst misses
system.cpu00.itb.read_hits                          0                       # DTB read hits
system.cpu00.itb.read_misses                        0                       # DTB read misses
system.cpu00.itb.write_hits                         0                       # DTB write hits
system.cpu00.itb.write_misses                       0                       # DTB write misses
system.cpu00.itb.flush_tlb                          0                       # Number of times complete TLB was flushed
system.cpu00.itb.flush_tlb_mva                      0                       # Number of times TLB was flushed by MVA
system.cpu00.itb.flush_tlb_mva_asid                 0                       # Number of times TLB was flushed by MVA & ASID
system.cpu00.itb.flush_tlb_asid                     0                       # Number of times TLB was flushed by ASID
system.cpu00.itb.flush_entries                      0                       # Number of entries that have been flushed from TLB
system.cpu00.itb.align_faults                       0                       # Number of TLB faults due to alignment restrictions
system.cpu00.itb.prefetch_faults                    0                       # Number of TLB faults due to prefetch
system.cpu00.itb.domain_faults                      0                       # Number of TLB faults due to domain restrictions
system.cpu00.itb.perms_faults                       0                       # Number of TLB faults due to permissions restrictions
system.cpu00.itb.read_accesses                      0                       # DTB read accesses
system.cpu00.itb.write_accesses                     0                       # DTB write accesses
system.cpu00.itb.inst_accesses                      0                       # ITB inst accesses
system.cpu00.itb.hits                               0                       # DTB hits
system.cpu00.itb.misses                             0                       # DTB misses
system.cpu00.itb.accesses                           0                       # DTB accesses
system.cpu00.workload.num_syscalls             191601                       # Number of system calls
system.cpu00.numCycles                       18618840                       # number of cpu cycles simulated
system.cpu00.numWorkItemsStarted                    0                       # number of work items this cpu started
system.cpu00.numWorkItemsCompleted                  0                       # number of work items this cpu completed
system.cpu00.fetch.icacheStallCycles            14693                       # Number of cycles fetch is stalled on an Icache miss
system.cpu00.fetch.Insts                     46474717                       # Number of instructions fetch has processed
system.cpu00.fetch.Branches                   9296753                       # Number of branches that fetch encountered
system.cpu00.fetch.predictedBranches          9291810                       # Number of branches that fetch has predicted taken
system.cpu00.fetch.Cycles                    18595153                       # Number of cycles fetch has run and was not squashing or blocked
system.cpu00.fetch.SquashCycles                  1911                       # Number of cycles fetch has spent squashing
system.cpu00.fetch.PendingTrapStallCycles          165                       # Number of stall cycles due to pending traps
system.cpu00.fetch.CacheLines                    7766                       # Number of cache lines fetched
system.cpu00.fetch.IcacheSquashes                 309                       # Number of outstanding Icache misses that were squashed
system.cpu00.fetch.rateDist::samples         18610966                       # Number of instructions fetched each cycle (Total)
system.cpu00.fetch.rateDist::mean            2.497498                       # Number of instructions fetched each cycle (Total)
system.cpu00.fetch.rateDist::stdev           0.506574                       # Number of instructions fetched each cycle (Total)
system.cpu00.fetch.rateDist::underflows             0      0.00%      0.00% # Number of instructions fetched each cycle (Total)
system.cpu00.fetch.rateDist::0                  19539      0.10%      0.10% # Number of instructions fetched each cycle (Total)
system.cpu00.fetch.rateDist::1                   3021      0.02%      0.12% # Number of instructions fetched each cycle (Total)
system.cpu00.fetch.rateDist::2                9287386     49.90%     50.02% # Number of instructions fetched each cycle (Total)
system.cpu00.fetch.rateDist::3                9301020     49.98%    100.00% # Number of instructions fetched each cycle (Total)
system.cpu00.fetch.rateDist::overflows              0      0.00%    100.00% # Number of instructions fetched each cycle (Total)
system.cpu00.fetch.rateDist::min_value              0                       # Number of instructions fetched each cycle (Total)
system.cpu00.fetch.rateDist::max_value              3                       # Number of instructions fetched each cycle (Total)
system.cpu00.fetch.rateDist::total           18610966                       # Number of instructions fetched each cycle (Total)
system.cpu00.fetch.branchRate                0.499320                       # Number of branch fetches per cycle
system.cpu00.fetch.rate                      2.496112                       # Number of inst fetches per cycle
system.cpu00.decode.IdleCycles                  13544                       # Number of cycles decode is idle
system.cpu00.decode.BlockedCycles                6916                       # Number of cycles decode is blocked
system.cpu00.decode.RunCycles                18589116                       # Number of cycles decode is running
system.cpu00.decode.UnblockCycles                 641                       # Number of cycles decode is unblocking
system.cpu00.decode.SquashCycles                  749                       # Number of cycles decode is squashing
system.cpu00.decode.BranchResolved               2638                       # Number of times decode resolved a branch
system.cpu00.decode.BranchMispred                 226                       # Number of times decode detected a branch misprediction
system.cpu00.decode.DecodedInsts             46476475                       # Number of instructions handled by decode
system.cpu00.decode.SquashedInsts                 464                       # Number of squashed instructions handled by decode
system.cpu00.rename.SquashCycles                  749                       # Number of cycles rename is squashing
system.cpu00.rename.IdleCycles                  14321                       # Number of cycles rename is idle
system.cpu00.rename.BlockCycles                   656                       # Number of cycles rename is blocking
system.cpu00.rename.serializeStallCycles         3885                       # count of cycles rename stalled for serializing inst
system.cpu00.rename.RunCycles                18588897                       # Number of cycles rename is running
system.cpu00.rename.UnblockCycles                2458                       # Number of cycles rename is unblocking
system.cpu00.rename.RenamedInsts             46475094                       # Number of instructions processed by rename
system.cpu00.rename.IQFullEvents                    1                       # Number of times rename has blocked due to IQ full
system.cpu00.rename.SQFullEvents                 2349                       # Number of times rename has blocked due to SQ full
system.cpu00.rename.RenamedOperands          46477037                       # Number of destination operands rename has renamed
system.cpu00.rename.RenameLookups           213771289                       # Number of register rename lookups that rename has made
system.cpu00.rename.int_rename_lookups       46477080                       # Number of integer rename lookups
system.cpu00.rename.fp_rename_lookups              16                       # Number of floating rename lookups
system.cpu00.rename.CommittedMaps            46466801                       # Number of HB maps that are committed
system.cpu00.rename.UndoneMaps                  10236                       # Number of HB maps that are undone due to squashing
system.cpu00.rename.serializingInsts               85                       # count of serializing insts renamed
system.cpu00.rename.tempSerializingInsts           86                       # count of temporary serializing insts renamed
system.cpu00.rename.skidInsts                    1164                       # count of insts added to the skid buffer
system.cpu00.memDep0.insertedLoads           18573830                       # Number of loads inserted to the mem dependence unit.
system.cpu00.memDep0.insertedStores           9290752                       # Number of stores inserted to the mem dependence unit.
system.cpu00.memDep0.conflictingLoads         9284083                       # Number of conflicting loads.
system.cpu00.memDep0.conflictingStores        9283995                       # Number of conflicting stores.
system.cpu00.iq.iqInstsAdded                 46472577                       # Number of instructions added to the IQ (excludes non-spec)
system.cpu00.iq.iqNonSpecInstsAdded               110                       # Number of non-speculative instructions added to the IQ
system.cpu00.iq.iqInstsIssued                46470419                       # Number of instructions issued
system.cpu00.iq.iqSquashedInstsIssued             258                       # Number of squashed instructions issued
system.cpu00.iq.iqSquashedInstsExamined          6725                       # Number of squashed instructions iterated over during squash; mainly for profiling
system.cpu00.iq.iqSquashedOperandsExamined        15494                       # Number of squashed operands that are examined and possibly removed from graph
system.cpu00.iq.iqSquashedNonSpecRemoved            9                       # Number of squashed non-spec instructions that were removed
system.cpu00.iq.issued_per_cycle::samples     18610966                       # Number of insts issued each cycle
system.cpu00.iq.issued_per_cycle::mean       2.496938                       # Number of insts issued each cycle
system.cpu00.iq.issued_per_cycle::stdev      0.711587                       # Number of insts issued each cycle
system.cpu00.iq.issued_per_cycle::underflows            0      0.00%      0.00% # Number of insts issued each cycle
system.cpu00.iq.issued_per_cycle::0             19077      0.10%      0.10% # Number of insts issued each cycle
system.cpu00.iq.issued_per_cycle::1           2328378     12.51%     12.61% # Number of insts issued each cycle
system.cpu00.iq.issued_per_cycle::2           4648492     24.98%     37.59% # Number of insts issued each cycle
system.cpu00.iq.issued_per_cycle::3          11615019     62.41%    100.00% # Number of insts issued each cycle
system.cpu00.iq.issued_per_cycle::overflows            0      0.00%    100.00% # Number of insts issued each cycle
system.cpu00.iq.issued_per_cycle::min_value            0                       # Number of insts issued each cycle
system.cpu00.iq.issued_per_cycle::max_value            3                       # Number of insts issued each cycle
system.cpu00.iq.issued_per_cycle::total      18610966                       # Number of insts issued each cycle
system.cpu00.iq.fu_full::No_OpClass                 0                       # attempts to use FU when none available
system.cpu00.iq.fu_full::IntAlu                     0                       # attempts to use FU when none available
system.cpu00.iq.fu_full::IntMult                    0                       # attempts to use FU when none available
system.cpu00.iq.fu_full::IntDiv                     0                       # attempts to use FU when none available
system.cpu00.iq.fu_full::FloatAdd                   0                       # attempts to use FU when none available
system.cpu00.iq.fu_full::FloatCmp                   0                       # attempts to use FU when none available
system.cpu00.iq.fu_full::FloatCvt                   0                       # attempts to use FU when none available
system.cpu00.iq.fu_full::FloatMult                  0                       # attempts to use FU when none available
system.cpu00.iq.fu_full::FloatDiv                   0                       # attempts to use FU when none available
system.cpu00.iq.fu_full::FloatSqrt                  0                       # attempts to use FU when none available
system.cpu00.iq.fu_full::SimdAdd                    0                       # attempts to use FU when none available
system.cpu00.iq.fu_full::SimdAddAcc                 0                       # attempts to use FU when none available
system.cpu00.iq.fu_full::SimdAlu                    0                       # attempts to use FU when none available
system.cpu00.iq.fu_full::SimdCmp                    0                       # attempts to use FU when none available
system.cpu00.iq.fu_full::SimdCvt                    0                       # attempts to use FU when none available
system.cpu00.iq.fu_full::SimdMisc                   0                       # attempts to use FU when none available
system.cpu00.iq.fu_full::SimdMult                   0                       # attempts to use FU when none available
system.cpu00.iq.fu_full::SimdMultAcc                0                       # attempts to use FU when none available
system.cpu00.iq.fu_full::SimdShift                  0                       # attempts to use FU when none available
system.cpu00.iq.fu_full::SimdShiftAcc               0                       # attempts to use FU when none available
system.cpu00.iq.fu_full::SimdSqrt                   0                       # attempts to use FU when none available
system.cpu00.iq.fu_full::SimdFloatAdd               0                       # attempts to use FU when none available
system.cpu00.iq.fu_full::SimdFloatAlu               0                       # attempts to use FU when none available
system.cpu00.iq.fu_full::SimdFloatCmp               0                       # attempts to use FU when none available
system.cpu00.iq.fu_full::SimdFloatCvt               0                       # attempts to use FU when none available
system.cpu00.iq.fu_full::SimdFloatDiv               0                       # attempts to use FU when none available
system.cpu00.iq.fu_full::SimdFloatMisc              0                       # attempts to use FU when none available
system.cpu00.iq.fu_full::SimdFloatMult              0                       # attempts to use FU when none available
system.cpu00.iq.fu_full::SimdFloatMultAcc            0                       # attempts to use FU when none available
system.cpu00.iq.fu_full::SimdFloatSqrt              0                       # attempts to use FU when none available
system.cpu00.iq.fu_full::MemRead                    0                       # attempts to use FU when none available
system.cpu00.iq.fu_full::MemWrite                   0                       # attempts to use FU when none available
system.cpu00.iq.fu_full::IprAccess                  0                       # attempts to use FU when none available
system.cpu00.iq.fu_full::InstPrefetch               0                       # attempts to use FU when none available
system.cpu00.iq.FU_type_0::No_OpClass               0      0.00%      0.00% # Type of FU issued
system.cpu00.iq.FU_type_0::IntAlu            18606424     40.04%     40.04% # Type of FU issued
system.cpu00.iq.FU_type_0::IntMult                  8      0.00%     40.04% # Type of FU issued
system.cpu00.iq.FU_type_0::IntDiv                   0      0.00%     40.04% # Type of FU issued
system.cpu00.iq.FU_type_0::FloatAdd                 0      0.00%     40.04% # Type of FU issued
system.cpu00.iq.FU_type_0::FloatCmp                 0      0.00%     40.04% # Type of FU issued
system.cpu00.iq.FU_type_0::FloatCvt                 0      0.00%     40.04% # Type of FU issued
system.cpu00.iq.FU_type_0::FloatMult                0      0.00%     40.04% # Type of FU issued
system.cpu00.iq.FU_type_0::FloatDiv                 0      0.00%     40.04% # Type of FU issued
system.cpu00.iq.FU_type_0::FloatSqrt                0      0.00%     40.04% # Type of FU issued
system.cpu00.iq.FU_type_0::SimdAdd                  0      0.00%     40.04% # Type of FU issued
system.cpu00.iq.FU_type_0::SimdAddAcc               0      0.00%     40.04% # Type of FU issued
system.cpu00.iq.FU_type_0::SimdAlu                  0      0.00%     40.04% # Type of FU issued
system.cpu00.iq.FU_type_0::SimdCmp                  0      0.00%     40.04% # Type of FU issued
system.cpu00.iq.FU_type_0::SimdCvt                  0      0.00%     40.04% # Type of FU issued
system.cpu00.iq.FU_type_0::SimdMisc                 0      0.00%     40.04% # Type of FU issued
system.cpu00.iq.FU_type_0::SimdMult                 0      0.00%     40.04% # Type of FU issued
system.cpu00.iq.FU_type_0::SimdMultAcc              0      0.00%     40.04% # Type of FU issued
system.cpu00.iq.FU_type_0::SimdShift                0      0.00%     40.04% # Type of FU issued
system.cpu00.iq.FU_type_0::SimdShiftAcc             0      0.00%     40.04% # Type of FU issued
system.cpu00.iq.FU_type_0::SimdSqrt                 0      0.00%     40.04% # Type of FU issued
system.cpu00.iq.FU_type_0::SimdFloatAdd             0      0.00%     40.04% # Type of FU issued
system.cpu00.iq.FU_type_0::SimdFloatAlu             0      0.00%     40.04% # Type of FU issued
system.cpu00.iq.FU_type_0::SimdFloatCmp             0      0.00%     40.04% # Type of FU issued
system.cpu00.iq.FU_type_0::SimdFloatCvt             0      0.00%     40.04% # Type of FU issued
system.cpu00.iq.FU_type_0::SimdFloatDiv             0      0.00%     40.04% # Type of FU issued
system.cpu00.iq.FU_type_0::SimdFloatMisc            3      0.00%     40.04% # Type of FU issued
system.cpu00.iq.FU_type_0::SimdFloatMult            0      0.00%     40.04% # Type of FU issued
system.cpu00.iq.FU_type_0::SimdFloatMultAcc            0      0.00%     40.04% # Type of FU issued
system.cpu00.iq.FU_type_0::SimdFloatSqrt            0      0.00%     40.04% # Type of FU issued
system.cpu00.iq.FU_type_0::MemRead           18573513     39.97%     80.01% # Type of FU issued
system.cpu00.iq.FU_type_0::MemWrite           9290471     19.99%    100.00% # Type of FU issued
system.cpu00.iq.FU_type_0::IprAccess                0      0.00%    100.00% # Type of FU issued
system.cpu00.iq.FU_type_0::InstPrefetch             0      0.00%    100.00% # Type of FU issued
system.cpu00.iq.FU_type_0::total             46470419                       # Type of FU issued
system.cpu00.iq.rate                         2.495882                       # Inst issue rate
system.cpu00.iq.fu_busy_cnt                         0                       # FU busy when requested
system.cpu00.iq.fu_busy_rate                        0                       # FU busy rate (busy events/executed inst)
system.cpu00.iq.int_inst_queue_reads        111552030                       # Number of integer instruction queue reads
system.cpu00.iq.int_inst_queue_writes        46479446                       # Number of integer instruction queue writes
system.cpu00.iq.int_inst_queue_wakeup_accesses     46468896                       # Number of integer instruction queue wakeup accesses
system.cpu00.iq.fp_inst_queue_reads                32                       # Number of floating instruction queue reads
system.cpu00.iq.fp_inst_queue_writes               16                       # Number of floating instruction queue writes
system.cpu00.iq.fp_inst_queue_wakeup_accesses           16                       # Number of floating instruction queue wakeup accesses
system.cpu00.iq.int_alu_accesses             46470403                       # Number of integer alu accesses
system.cpu00.iq.fp_alu_accesses                    16                       # Number of floating point alu accesses
system.cpu00.iew.lsq.thread0.forwLoads        9284139                       # Number of loads that had data forwarded from stores
system.cpu00.iew.lsq.thread0.invAddrLoads            0                       # Number of loads ignored due to an invalid address
system.cpu00.iew.lsq.thread0.squashedLoads         1756                       # Number of loads squashed
system.cpu00.iew.lsq.thread0.ignoredResponses            1                       # Number of memory responses ignored because the instruction is squashed
system.cpu00.iew.lsq.thread0.memOrderViolation           51                       # Number of memory ordering violations
system.cpu00.iew.lsq.thread0.squashedStores          688                       # Number of stores squashed
system.cpu00.iew.lsq.thread0.invAddrSwpfs            0                       # Number of software prefetches ignored due to an invalid address
system.cpu00.iew.lsq.thread0.blockedLoads            0                       # Number of blocked loads due to partial load-store forwarding
system.cpu00.iew.lsq.thread0.rescheduledLoads            4                       # Number of loads that were rescheduled
system.cpu00.iew.lsq.thread0.cacheBlocked            9                       # Number of times an access to memory failed due to the cache being blocked
system.cpu00.iew.iewIdleCycles                      0                       # Number of cycles IEW is idle
system.cpu00.iew.iewSquashCycles                  749                       # Number of cycles IEW is squashing
system.cpu00.iew.iewBlockCycles                   542                       # Number of cycles IEW is blocking
system.cpu00.iew.iewUnblockCycles                 118                       # Number of cycles IEW is unblocking
system.cpu00.iew.iewDispatchedInsts          46472708                       # Number of instructions dispatched to IQ
system.cpu00.iew.iewDispSquashedInsts             513                       # Number of squashed instructions skipped by dispatch
system.cpu00.iew.iewDispLoadInsts            18573830                       # Number of dispatched load instructions
system.cpu00.iew.iewDispStoreInsts            9290752                       # Number of dispatched store instructions
system.cpu00.iew.iewDispNonSpecInsts               80                       # Number of dispatched non-speculative instructions
system.cpu00.iew.iewIQFullEvents                    3                       # Number of times the IQ has become full, causing a stall
system.cpu00.iew.iewLSQFullEvents                   0                       # Number of times the LSQ has become full, causing a stall
system.cpu00.iew.memOrderViolationEvents           51                       # Number of memory order violations
system.cpu00.iew.predictedTakenIncorrect           89                       # Number of branches that were predicted taken incorrectly
system.cpu00.iew.predictedNotTakenIncorrect          616                       # Number of branches that were predicted not taken incorrectly
system.cpu00.iew.branchMispredicts                705                       # Number of branch mispredicts detected at execute
system.cpu00.iew.iewExecutedInsts            46469549                       # Number of executed instructions
system.cpu00.iew.iewExecLoadInsts            18573267                       # Number of load instructions executed
system.cpu00.iew.iewExecSquashedInsts             870                       # Number of squashed instructions skipped in execute
system.cpu00.iew.exec_swp                           0                       # number of swp insts executed
system.cpu00.iew.exec_nop                          21                       # number of nop insts executed
system.cpu00.iew.exec_refs                   27863576                       # number of memory reference insts executed
system.cpu00.iew.exec_branches                9294718                       # Number of branches executed
system.cpu00.iew.exec_stores                  9290309                       # Number of stores executed
system.cpu00.iew.exec_rate                   2.495835                       # Inst execution rate
system.cpu00.iew.wb_sent                     46469040                       # cumulative count of insts sent to commit
system.cpu00.iew.wb_count                    46468912                       # cumulative count of insts written-back
system.cpu00.iew.wb_producers                27876166                       # num instructions producing a value
system.cpu00.iew.wb_consumers                27888093                       # num instructions consuming a value
system.cpu00.iew.wb_penalized                       0                       # number of instrctions required to write to 'other' IQ
system.cpu00.iew.wb_rate                     2.495801                       # insts written-back per cycle
system.cpu00.iew.wb_fanout                   0.999572                       # average fanout of values written-back
system.cpu00.iew.wb_penalized_rate                  0                       # fraction of instructions written-back that wrote to 'other' IQ
system.cpu00.commit.commitSquashedInsts          6745                       # The number of squashed insts skipped by commit
system.cpu00.commit.commitNonSpecStalls           101                       # The number of times commit has been forced to stall to communicate backwards
system.cpu00.commit.branchMispredicts             662                       # The number of times a branch was mispredicted
system.cpu00.commit.committed_per_cycle::samples     18609734                       # Number of insts commited each cycle
system.cpu00.commit.committed_per_cycle::mean     2.496863                       # Number of insts commited each cycle
system.cpu00.commit.committed_per_cycle::stdev     1.582127                       # Number of insts commited each cycle
system.cpu00.commit.committed_per_cycle::underflows            0      0.00%      0.00% # Number of insts commited each cycle
system.cpu00.commit.committed_per_cycle::0        20517      0.11%      0.11% # Number of insts commited each cycle
system.cpu00.commit.committed_per_cycle::1      9292895     49.94%     50.05% # Number of insts commited each cycle
system.cpu00.commit.committed_per_cycle::2         3596      0.02%     50.07% # Number of insts commited each cycle
system.cpu00.commit.committed_per_cycle::3      2327020     12.50%     62.57% # Number of insts commited each cycle
system.cpu00.commit.committed_per_cycle::4      4644285     24.96%     87.53% # Number of insts commited each cycle
system.cpu00.commit.committed_per_cycle::5      2321153     12.47%    100.00% # Number of insts commited each cycle
system.cpu00.commit.committed_per_cycle::6           87      0.00%    100.00% # Number of insts commited each cycle
system.cpu00.commit.committed_per_cycle::7           60      0.00%    100.00% # Number of insts commited each cycle
system.cpu00.commit.committed_per_cycle::8          121      0.00%    100.00% # Number of insts commited each cycle
system.cpu00.commit.committed_per_cycle::overflows            0      0.00%    100.00% # Number of insts commited each cycle
system.cpu00.commit.committed_per_cycle::min_value            0                       # Number of insts commited each cycle
system.cpu00.commit.committed_per_cycle::max_value            8                       # Number of insts commited each cycle
system.cpu00.commit.committed_per_cycle::total     18609734                       # Number of insts commited each cycle
system.cpu00.commit.committedInsts           46462192                       # Number of instructions committed
system.cpu00.commit.committedOps             46465962                       # Number of ops (including micro ops) committed
system.cpu00.commit.swp_count                       0                       # Number of s/w prefetches committed
system.cpu00.commit.refs                     27862138                       # Number of memory references committed
system.cpu00.commit.loads                    18572074                       # Number of loads committed
system.cpu00.commit.membars                        30                       # Number of memory barriers committed
system.cpu00.commit.branches                  9294240                       # Number of branches committed
system.cpu00.commit.fp_insts                       16                       # Number of committed floating point instructions.
system.cpu00.commit.int_insts                37176322                       # Number of committed integer instructions.
system.cpu00.commit.function_calls               2256                       # Number of function calls committed.
system.cpu00.commit.op_class_0::No_OpClass            0      0.00%      0.00% # Class of committed instruction
system.cpu00.commit.op_class_0::IntAlu       18603813     40.04%     40.04% # Class of committed instruction
system.cpu00.commit.op_class_0::IntMult             8      0.00%     40.04% # Class of committed instruction
system.cpu00.commit.op_class_0::IntDiv              0      0.00%     40.04% # Class of committed instruction
system.cpu00.commit.op_class_0::FloatAdd            0      0.00%     40.04% # Class of committed instruction
system.cpu00.commit.op_class_0::FloatCmp            0      0.00%     40.04% # Class of committed instruction
system.cpu00.commit.op_class_0::FloatCvt            0      0.00%     40.04% # Class of committed instruction
system.cpu00.commit.op_class_0::FloatMult            0      0.00%     40.04% # Class of committed instruction
system.cpu00.commit.op_class_0::FloatDiv            0      0.00%     40.04% # Class of committed instruction
system.cpu00.commit.op_class_0::FloatSqrt            0      0.00%     40.04% # Class of committed instruction
system.cpu00.commit.op_class_0::SimdAdd             0      0.00%     40.04% # Class of committed instruction
system.cpu00.commit.op_class_0::SimdAddAcc            0      0.00%     40.04% # Class of committed instruction
system.cpu00.commit.op_class_0::SimdAlu             0      0.00%     40.04% # Class of committed instruction
system.cpu00.commit.op_class_0::SimdCmp             0      0.00%     40.04% # Class of committed instruction
system.cpu00.commit.op_class_0::SimdCvt             0      0.00%     40.04% # Class of committed instruction
system.cpu00.commit.op_class_0::SimdMisc            0      0.00%     40.04% # Class of committed instruction
system.cpu00.commit.op_class_0::SimdMult            0      0.00%     40.04% # Class of committed instruction
system.cpu00.commit.op_class_0::SimdMultAcc            0      0.00%     40.04% # Class of committed instruction
system.cpu00.commit.op_class_0::SimdShift            0      0.00%     40.04% # Class of committed instruction
system.cpu00.commit.op_class_0::SimdShiftAcc            0      0.00%     40.04% # Class of committed instruction
system.cpu00.commit.op_class_0::SimdSqrt            0      0.00%     40.04% # Class of committed instruction
system.cpu00.commit.op_class_0::SimdFloatAdd            0      0.00%     40.04% # Class of committed instruction
system.cpu00.commit.op_class_0::SimdFloatAlu            0      0.00%     40.04% # Class of committed instruction
system.cpu00.commit.op_class_0::SimdFloatCmp            0      0.00%     40.04% # Class of committed instruction
system.cpu00.commit.op_class_0::SimdFloatCvt            0      0.00%     40.04% # Class of committed instruction
system.cpu00.commit.op_class_0::SimdFloatDiv            0      0.00%     40.04% # Class of committed instruction
system.cpu00.commit.op_class_0::SimdFloatMisc            3      0.00%     40.04% # Class of committed instruction
system.cpu00.commit.op_class_0::SimdFloatMult            0      0.00%     40.04% # Class of committed instruction
system.cpu00.commit.op_class_0::SimdFloatMultAcc            0      0.00%     40.04% # Class of committed instruction
system.cpu00.commit.op_class_0::SimdFloatSqrt            0      0.00%     40.04% # Class of committed instruction
system.cpu00.commit.op_class_0::MemRead      18572074     39.97%     80.01% # Class of committed instruction
system.cpu00.commit.op_class_0::MemWrite      9290064     19.99%    100.00% # Class of committed instruction
system.cpu00.commit.op_class_0::IprAccess            0      0.00%    100.00% # Class of committed instruction
system.cpu00.commit.op_class_0::InstPrefetch            0      0.00%    100.00% # Class of committed instruction
system.cpu00.commit.op_class_0::total        46465962                       # Class of committed instruction
system.cpu00.commit.bw_lim_events                 121                       # number cycles where commit BW limit reached
system.cpu00.rob.rob_reads                   65081799                       # The number of ROB reads
system.cpu00.rob.rob_writes                  92946653                       # The number of ROB writes
system.cpu00.timesIdled                           257                       # Number of times that the entire CPU went into an idle state and unscheduled itself
system.cpu00.idleCycles                          7874                       # Total number of cycles that the CPU has spent unscheduled due to idling
system.cpu00.committedInsts                  46462192                       # Number of Instructions Simulated
system.cpu00.committedOps                    46465962                       # Number of Ops (including micro ops) Simulated
system.cpu00.cpi                             0.400731                       # CPI: Cycles Per Instruction
system.cpu00.cpi_total                       0.400731                       # CPI: Total CPI of All Threads
system.cpu00.ipc                             2.495440                       # IPC: Instructions Per Cycle
system.cpu00.ipc_total                       2.495440                       # IPC: Total IPC of All Threads
system.cpu00.int_regfile_reads               46468797                       # number of integer regfile reads
system.cpu00.int_regfile_writes              18597032                       # number of integer regfile writes
system.cpu00.fp_regfile_reads                    2576                       # number of floating regfile reads
system.cpu00.cc_regfile_reads               195126526                       # number of cc regfile reads
system.cpu00.cc_regfile_writes               27872953                       # number of cc regfile writes
system.cpu00.misc_regfile_reads              28672394                       # number of misc regfile reads
system.cpu00.misc_regfile_writes                   62                       # number of misc regfile writes
system.cpu00.dcache.tags.replacements             635                       # number of replacements
system.cpu00.dcache.tags.tagsinuse         197.853402                       # Cycle average of tags in use
system.cpu00.dcache.tags.total_refs          18572932                       # Total number of references to valid blocks.
system.cpu00.dcache.tags.sampled_refs             844                       # Sample count of references to valid blocks.
system.cpu00.dcache.tags.avg_refs        22005.843602                       # Average number of references to valid blocks.
system.cpu00.dcache.tags.warmup_cycle        26923000                       # Cycle when the warmup percentage was hit.
system.cpu00.dcache.tags.occ_blocks::cpu00.data   197.853402                       # Average occupied blocks per requestor
system.cpu00.dcache.tags.occ_percent::cpu00.data     0.386432                       # Average percentage of cache occupancy
system.cpu00.dcache.tags.occ_percent::total     0.386432                       # Average percentage of cache occupancy
system.cpu00.dcache.tags.occ_task_id_blocks::1024          209                       # Occupied blocks per task id
system.cpu00.dcache.tags.age_task_id_blocks_1024::0           25                       # Occupied blocks per task id
system.cpu00.dcache.tags.age_task_id_blocks_1024::4          184                       # Occupied blocks per task id
system.cpu00.dcache.tags.occ_task_id_percent::1024     0.408203                       # Percentage of cache occupancy per task id
system.cpu00.dcache.tags.tag_accesses        37158999                       # Number of tag accesses
system.cpu00.dcache.tags.data_accesses       37158999                       # Number of data accesses
system.cpu00.dcache.ReadReq_hits::cpu00.data      9288596                       # number of ReadReq hits
system.cpu00.dcache.ReadReq_hits::total       9288596                       # number of ReadReq hits
system.cpu00.dcache.WriteReq_hits::cpu00.data      9285399                       # number of WriteReq hits
system.cpu00.dcache.WriteReq_hits::total      9285399                       # number of WriteReq hits
system.cpu00.dcache.LoadLockedReq_hits::cpu00.data           27                       # number of LoadLockedReq hits
system.cpu00.dcache.LoadLockedReq_hits::total           27                       # number of LoadLockedReq hits
system.cpu00.dcache.StoreCondReq_hits::cpu00.data           28                       # number of StoreCondReq hits
system.cpu00.dcache.StoreCondReq_hits::total           28                       # number of StoreCondReq hits
system.cpu00.dcache.demand_hits::cpu00.data     18573995                       # number of demand (read+write) hits
system.cpu00.dcache.demand_hits::total       18573995                       # number of demand (read+write) hits
system.cpu00.dcache.overall_hits::cpu00.data     18573995                       # number of overall hits
system.cpu00.dcache.overall_hits::total      18573995                       # number of overall hits
system.cpu00.dcache.ReadReq_misses::cpu00.data          275                       # number of ReadReq misses
system.cpu00.dcache.ReadReq_misses::total          275                       # number of ReadReq misses
system.cpu00.dcache.WriteReq_misses::cpu00.data         4576                       # number of WriteReq misses
system.cpu00.dcache.WriteReq_misses::total         4576                       # number of WriteReq misses
system.cpu00.dcache.LoadLockedReq_misses::cpu00.data            5                       # number of LoadLockedReq misses
system.cpu00.dcache.LoadLockedReq_misses::total            5                       # number of LoadLockedReq misses
system.cpu00.dcache.StoreCondReq_misses::cpu00.data            1                       # number of StoreCondReq misses
system.cpu00.dcache.StoreCondReq_misses::total            1                       # number of StoreCondReq misses
system.cpu00.dcache.demand_misses::cpu00.data         4851                       # number of demand (read+write) misses
system.cpu00.dcache.demand_misses::total         4851                       # number of demand (read+write) misses
system.cpu00.dcache.overall_misses::cpu00.data         4851                       # number of overall misses
system.cpu00.dcache.overall_misses::total         4851                       # number of overall misses
system.cpu00.dcache.ReadReq_miss_latency::cpu00.data     10167987                       # number of ReadReq miss cycles
system.cpu00.dcache.ReadReq_miss_latency::total     10167987                       # number of ReadReq miss cycles
system.cpu00.dcache.WriteReq_miss_latency::cpu00.data    230125999                       # number of WriteReq miss cycles
system.cpu00.dcache.WriteReq_miss_latency::total    230125999                       # number of WriteReq miss cycles
system.cpu00.dcache.LoadLockedReq_miss_latency::cpu00.data       171500                       # number of LoadLockedReq miss cycles
system.cpu00.dcache.LoadLockedReq_miss_latency::total       171500                       # number of LoadLockedReq miss cycles
system.cpu00.dcache.StoreCondReq_miss_latency::cpu00.data         7500                       # number of StoreCondReq miss cycles
system.cpu00.dcache.StoreCondReq_miss_latency::total         7500                       # number of StoreCondReq miss cycles
system.cpu00.dcache.demand_miss_latency::cpu00.data    240293986                       # number of demand (read+write) miss cycles
system.cpu00.dcache.demand_miss_latency::total    240293986                       # number of demand (read+write) miss cycles
system.cpu00.dcache.overall_miss_latency::cpu00.data    240293986                       # number of overall miss cycles
system.cpu00.dcache.overall_miss_latency::total    240293986                       # number of overall miss cycles
system.cpu00.dcache.ReadReq_accesses::cpu00.data      9288871                       # number of ReadReq accesses(hits+misses)
system.cpu00.dcache.ReadReq_accesses::total      9288871                       # number of ReadReq accesses(hits+misses)
system.cpu00.dcache.WriteReq_accesses::cpu00.data      9289975                       # number of WriteReq accesses(hits+misses)
system.cpu00.dcache.WriteReq_accesses::total      9289975                       # number of WriteReq accesses(hits+misses)
system.cpu00.dcache.LoadLockedReq_accesses::cpu00.data           32                       # number of LoadLockedReq accesses(hits+misses)
system.cpu00.dcache.LoadLockedReq_accesses::total           32                       # number of LoadLockedReq accesses(hits+misses)
system.cpu00.dcache.StoreCondReq_accesses::cpu00.data           29                       # number of StoreCondReq accesses(hits+misses)
system.cpu00.dcache.StoreCondReq_accesses::total           29                       # number of StoreCondReq accesses(hits+misses)
system.cpu00.dcache.demand_accesses::cpu00.data     18578846                       # number of demand (read+write) accesses
system.cpu00.dcache.demand_accesses::total     18578846                       # number of demand (read+write) accesses
system.cpu00.dcache.overall_accesses::cpu00.data     18578846                       # number of overall (read+write) accesses
system.cpu00.dcache.overall_accesses::total     18578846                       # number of overall (read+write) accesses
system.cpu00.dcache.ReadReq_miss_rate::cpu00.data     0.000030                       # miss rate for ReadReq accesses
system.cpu00.dcache.ReadReq_miss_rate::total     0.000030                       # miss rate for ReadReq accesses
system.cpu00.dcache.WriteReq_miss_rate::cpu00.data     0.000493                       # miss rate for WriteReq accesses
system.cpu00.dcache.WriteReq_miss_rate::total     0.000493                       # miss rate for WriteReq accesses
[...]
system.tol2bus.pkt_count_system.cpu10.dcache.mem_side::system.l2.cpu_side       376183                       # Packet count per connected master and slave (bytes)
system.tol2bus.pkt_count_system.cpu11.icache.mem_side::system.l2.cpu_side         3702                       # Packet count per connected master and slave (bytes)
system.tol2bus.pkt_count_system.cpu11.dcache.mem_side::system.l2.cpu_side       357437                       # Packet count per connected master and slave (bytes)
system.tol2bus.pkt_count_system.cpu12.icache.mem_side::system.l2.cpu_side         3356                       # Packet count per connected master and slave (bytes)
system.tol2bus.pkt_count_system.cpu12.dcache.mem_side::system.l2.cpu_side       355685                       # Packet count per connected master and slave (bytes)
system.tol2bus.pkt_count_system.cpu13.icache.mem_side::system.l2.cpu_side         3613                       # Packet count per connected master and slave (bytes)
system.tol2bus.pkt_count_system.cpu13.dcache.mem_side::system.l2.cpu_side       352235                       # Packet count per connected master and slave (bytes)
system.tol2bus.pkt_count_system.cpu14.icache.mem_side::system.l2.cpu_side         2612                       # Packet count per connected master and slave (bytes)
system.tol2bus.pkt_count_system.cpu14.dcache.mem_side::system.l2.cpu_side       351127                       # Packet count per connected master and slave (bytes)
system.tol2bus.pkt_count_system.cpu15.icache.mem_side::system.l2.cpu_side         3246                       # Packet count per connected master and slave (bytes)
system.tol2bus.pkt_count_system.cpu15.dcache.mem_side::system.l2.cpu_side       284474                       # Packet count per connected master and slave (bytes)
system.tol2bus.pkt_count_system.cpu16.icache.mem_side::system.l2.cpu_side         2325                       # Packet count per connected master and slave (bytes)
system.tol2bus.pkt_count_system.cpu16.dcache.mem_side::system.l2.cpu_side       153138                       # Packet count per connected master and slave (bytes)
system.tol2bus.pkt_count::total               4829021                       # Packet count per connected master and slave (bytes)
system.tol2bus.pkt_size_system.cpu00.icache.mem_side::system.l2.cpu_side        25600                       # Cumulative packet size per connected master and slave (bytes)
system.tol2bus.pkt_size_system.cpu00.dcache.mem_side::system.l2.cpu_side       109248                       # Cumulative packet size per connected master and slave (bytes)
system.tol2bus.pkt_size_system.cpu01.icache.mem_side::system.l2.cpu_side        80384                       # Cumulative packet size per connected master and slave (bytes)
system.tol2bus.pkt_size_system.cpu01.dcache.mem_side::system.l2.cpu_side        18496                       # Cumulative packet size per connected master and slave (bytes)
system.tol2bus.pkt_size_system.cpu02.icache.mem_side::system.l2.cpu_side        84608                       # Cumulative packet size per connected master and slave (bytes)
system.tol2bus.pkt_size_system.cpu02.dcache.mem_side::system.l2.cpu_side        49984                       # Cumulative packet size per connected master and slave (bytes)
system.tol2bus.pkt_size_system.cpu03.icache.mem_side::system.l2.cpu_side        73152                       # Cumulative packet size per connected master and slave (bytes)
system.tol2bus.pkt_size_system.cpu03.dcache.mem_side::system.l2.cpu_side        50240                       # Cumulative packet size per connected master and slave (bytes)
system.tol2bus.pkt_size_system.cpu04.icache.mem_side::system.l2.cpu_side        83712                       # Cumulative packet size per connected master and slave (bytes)
system.tol2bus.pkt_size_system.cpu04.dcache.mem_side::system.l2.cpu_side        89664                       # Cumulative packet size per connected master and slave (bytes)
system.tol2bus.pkt_size_system.cpu05.icache.mem_side::system.l2.cpu_side       113728                       # Cumulative packet size per connected master and slave (bytes)
system.tol2bus.pkt_size_system.cpu05.dcache.mem_side::system.l2.cpu_side        92160                       # Cumulative packet size per connected master and slave (bytes)
system.tol2bus.pkt_size_system.cpu06.icache.mem_side::system.l2.cpu_side       103360                       # Cumulative packet size per connected master and slave (bytes)
system.tol2bus.pkt_size_system.cpu06.dcache.mem_side::system.l2.cpu_side       109952                       # Cumulative packet size per connected master and slave (bytes)
system.tol2bus.pkt_size_system.cpu07.icache.mem_side::system.l2.cpu_side       117760                       # Cumulative packet size per connected master and slave (bytes)
system.tol2bus.pkt_size_system.cpu07.dcache.mem_side::system.l2.cpu_side       142976                       # Cumulative packet size per connected master and slave (bytes)
system.tol2bus.pkt_size_system.cpu08.icache.mem_side::system.l2.cpu_side       127424                       # Cumulative packet size per connected master and slave (bytes)
system.tol2bus.pkt_size_system.cpu08.dcache.mem_side::system.l2.cpu_side       263232                       # Cumulative packet size per connected master and slave (bytes)
system.tol2bus.pkt_size_system.cpu09.icache.mem_side::system.l2.cpu_side       110784                       # Cumulative packet size per connected master and slave (bytes)
system.tol2bus.pkt_size_system.cpu09.dcache.mem_side::system.l2.cpu_side       256832                       # Cumulative packet size per connected master and slave (bytes)
system.tol2bus.pkt_size_system.cpu10.icache.mem_side::system.l2.cpu_side       122304                       # Cumulative packet size per connected master and slave (bytes)
system.tol2bus.pkt_size_system.cpu10.dcache.mem_side::system.l2.cpu_side       278272                       # Cumulative packet size per connected master and slave (bytes)
system.tol2bus.pkt_size_system.cpu11.icache.mem_side::system.l2.cpu_side       118464                       # Cumulative packet size per connected master and slave (bytes)
system.tol2bus.pkt_size_system.cpu11.dcache.mem_side::system.l2.cpu_side       250880                       # Cumulative packet size per connected master and slave (bytes)
system.tol2bus.pkt_size_system.cpu12.icache.mem_side::system.l2.cpu_side       107392                       # Cumulative packet size per connected master and slave (bytes)
system.tol2bus.pkt_size_system.cpu12.dcache.mem_side::system.l2.cpu_side       307648                       # Cumulative packet size per connected master and slave (bytes)
system.tol2bus.pkt_size_system.cpu13.icache.mem_side::system.l2.cpu_side       115584                       # Cumulative packet size per connected master and slave (bytes)
system.tol2bus.pkt_size_system.cpu13.dcache.mem_side::system.l2.cpu_side       242880                       # Cumulative packet size per connected master and slave (bytes)
system.tol2bus.pkt_size_system.cpu14.icache.mem_side::system.l2.cpu_side        83584                       # Cumulative packet size per connected master and slave (bytes)
system.tol2bus.pkt_size_system.cpu14.dcache.mem_side::system.l2.cpu_side       151360                       # Cumulative packet size per connected master and slave (bytes)
system.tol2bus.pkt_size_system.cpu15.icache.mem_side::system.l2.cpu_side       103872                       # Cumulative packet size per connected master and slave (bytes)
system.tol2bus.pkt_size_system.cpu15.dcache.mem_side::system.l2.cpu_side        89152                       # Cumulative packet size per connected master and slave (bytes)
system.tol2bus.pkt_size_system.cpu16.icache.mem_side::system.l2.cpu_side        74368                       # Cumulative packet size per connected master and slave (bytes)
system.tol2bus.pkt_size_system.cpu16.dcache.mem_side::system.l2.cpu_side        40128                       # Cumulative packet size per connected master and slave (bytes)
system.tol2bus.pkt_size::total                4189184                       # Cumulative packet size per connected master and slave (bytes)
system.tol2bus.snoops                         4298827                       # Total snoops (count)
system.tol2bus.snoop_fanout::samples          4567659                       # Request fanout histogram
system.tol2bus.snoop_fanout::mean                  33                       # Request fanout histogram
system.tol2bus.snoop_fanout::stdev                  0                       # Request fanout histogram
system.tol2bus.snoop_fanout::underflows             0      0.00%      0.00% # Request fanout histogram
system.tol2bus.snoop_fanout::0                      0      0.00%      0.00% # Request fanout histogram
system.tol2bus.snoop_fanout::1                      0      0.00%      0.00% # Request fanout histogram
system.tol2bus.snoop_fanout::2                      0      0.00%      0.00% # Request fanout histogram
system.tol2bus.snoop_fanout::3                      0      0.00%      0.00% # Request fanout histogram
system.tol2bus.snoop_fanout::4                      0      0.00%      0.00% # Request fanout histogram
system.tol2bus.snoop_fanout::5                      0      0.00%      0.00% # Request fanout histogram
system.tol2bus.snoop_fanout::6                      0      0.00%      0.00% # Request fanout histogram
system.tol2bus.snoop_fanout::7                      0      0.00%      0.00% # Request fanout histogram
system.tol2bus.snoop_fanout::8                      0      0.00%      0.00% # Request fanout histogram
system.tol2bus.snoop_fanout::9                      0      0.00%      0.00% # Request fanout histogram
system.tol2bus.snoop_fanout::10                     0      0.00%      0.00% # Request fanout histogram
system.tol2bus.snoop_fanout::11                     0      0.00%      0.00% # Request fanout histogram
system.tol2bus.snoop_fanout::12                     0      0.00%      0.00% # Request fanout histogram
system.tol2bus.snoop_fanout::13                     0      0.00%      0.00% # Request fanout histogram
system.tol2bus.snoop_fanout::14                     0      0.00%      0.00% # Request fanout histogram
system.tol2bus.snoop_fanout::15                     0      0.00%      0.00% # Request fanout histogram
system.tol2bus.snoop_fanout::16                     0      0.00%      0.00% # Request fanout histogram
system.tol2bus.snoop_fanout::17                     0      0.00%      0.00% # Request fanout histogram
system.tol2bus.snoop_fanout::18                     0      0.00%      0.00% # Request fanout histogram
system.tol2bus.snoop_fanout::19                     0      0.00%      0.00% # Request fanout histogram
system.tol2bus.snoop_fanout::20                     0      0.00%      0.00% # Request fanout histogram
system.tol2bus.snoop_fanout::21                     0      0.00%      0.00% # Request fanout histogram
system.tol2bus.snoop_fanout::22                     0      0.00%      0.00% # Request fanout histogram
system.tol2bus.snoop_fanout::23                     0      0.00%      0.00% # Request fanout histogram
system.tol2bus.snoop_fanout::24                     0      0.00%      0.00% # Request fanout histogram
system.tol2bus.snoop_fanout::25                     0      0.00%      0.00% # Request fanout histogram
system.tol2bus.snoop_fanout::26                     0      0.00%      0.00% # Request fanout histogram
system.tol2bus.snoop_fanout::27                     0      0.00%      0.00% # Request fanout histogram
system.tol2bus.snoop_fanout::28                     0      0.00%      0.00% # Request fanout histogram
system.tol2bus.snoop_fanout::29                     0      0.00%      0.00% # Request fanout histogram
system.tol2bus.snoop_fanout::30                     0      0.00%      0.00% # Request fanout histogram
system.tol2bus.snoop_fanout::31                     0      0.00%      0.00% # Request fanout histogram
system.tol2bus.snoop_fanout::32                     0      0.00%      0.00% # Request fanout histogram
system.tol2bus.snoop_fanout::33               4567659    100.00%    100.00% # Request fanout histogram
system.tol2bus.snoop_fanout::34                     0      0.00%    100.00% # Request fanout histogram
system.tol2bus.snoop_fanout::overflows              0      0.00%    100.00% # Request fanout histogram
system.tol2bus.snoop_fanout::min_value             33                       # Request fanout histogram
system.tol2bus.snoop_fanout::max_value             33                       # Request fanout histogram
system.tol2bus.snoop_fanout::total            4567659                       # Request fanout histogram
system.tol2bus.reqLayer0.occupancy         2317350693                       # Layer occupancy (ticks)
system.tol2bus.reqLayer0.utilization             12.4                       # Layer utilization (%)
system.tol2bus.respLayer0.occupancy            600499                       # Layer occupancy (ticks)
system.tol2bus.respLayer0.utilization             0.0                       # Layer utilization (%)
system.tol2bus.respLayer1.occupancy           1785491                       # Layer occupancy (ticks)
system.tol2bus.respLayer1.utilization             0.0                       # Layer utilization (%)
system.tol2bus.respLayer4.occupancy           1903934                       # Layer occupancy (ticks)
system.tol2bus.respLayer4.utilization             0.0                       # Layer utilization (%)
system.tol2bus.respLayer5.occupancy         282368096                       # Layer occupancy (ticks)
system.tol2bus.respLayer5.utilization             1.5                       # Layer utilization (%)
system.tol2bus.respLayer8.occupancy           1994957                       # Layer occupancy (ticks)
system.tol2bus.respLayer8.utilization             0.0                       # Layer utilization (%)
system.tol2bus.respLayer9.occupancy         296798270                       # Layer occupancy (ticks)
system.tol2bus.respLayer9.utilization             1.6                       # Layer utilization (%)
system.tol2bus.respLayer12.occupancy          1728456                       # Layer occupancy (ticks)
system.tol2bus.respLayer12.utilization            0.0                       # Layer utilization (%)
system.tol2bus.respLayer13.occupancy        309518915                       # Layer occupancy (ticks)
system.tol2bus.respLayer13.utilization            1.7                       # Layer utilization (%)
system.tol2bus.respLayer16.occupancy          1978463                       # Layer occupancy (ticks)
system.tol2bus.respLayer16.utilization            0.0                       # Layer utilization (%)
system.tol2bus.respLayer17.occupancy        483382141                       # Layer occupancy (ticks)
system.tol2bus.respLayer17.utilization            2.6                       # Layer utilization (%)
system.tol2bus.respLayer20.occupancy          2669490                       # Layer occupancy (ticks)
system.tol2bus.respLayer20.utilization            0.0                       # Layer utilization (%)
system.tol2bus.respLayer21.occupancy        478602309                       # Layer occupancy (ticks)
system.tol2bus.respLayer21.utilization            2.6                       # Layer utilization (%)
system.tol2bus.respLayer24.occupancy          2431973                       # Layer occupancy (ticks)
system.tol2bus.respLayer24.utilization            0.0                       # Layer utilization (%)
system.tol2bus.respLayer25.occupancy        496753867                       # Layer occupancy (ticks)
system.tol2bus.respLayer25.utilization            2.7                       # Layer utilization (%)
system.tol2bus.respLayer28.occupancy          2762499                       # Layer occupancy (ticks)
system.tol2bus.respLayer28.utilization            0.0                       # Layer utilization (%)
system.tol2bus.respLayer29.occupancy        512407965                       # Layer occupancy (ticks)
system.tol2bus.respLayer29.utilization            2.8                       # Layer utilization (%)
system.tol2bus.respLayer32.occupancy          2988498                       # Layer occupancy (ticks)
system.tol2bus.respLayer32.utilization            0.0                       # Layer utilization (%)
system.tol2bus.respLayer33.occupancy        574447998                       # Layer occupancy (ticks)
system.tol2bus.respLayer33.utilization            3.1                       # Layer utilization (%)
system.tol2bus.respLayer36.occupancy          2599986                       # Layer occupancy (ticks)
system.tol2bus.respLayer36.utilization            0.0                       # Layer utilization (%)
system.tol2bus.respLayer37.occupancy        557508167                       # Layer occupancy (ticks)
system.tol2bus.respLayer37.utilization            3.0                       # Layer utilization (%)
system.tol2bus.respLayer40.occupancy          2871988                       # Layer occupancy (ticks)
system.tol2bus.respLayer40.utilization            0.0                       # Layer utilization (%)
system.tol2bus.respLayer41.occupancy        568972871                       # Layer occupancy (ticks)
system.tol2bus.respLayer41.utilization            3.1                       # Layer utilization (%)
system.tol2bus.respLayer44.occupancy          2781482                       # Layer occupancy (ticks)
system.tol2bus.respLayer44.utilization            0.0                       # Layer utilization (%)
system.tol2bus.respLayer45.occupancy        539961793                       # Layer occupancy (ticks)
system.tol2bus.respLayer45.utilization            2.9                       # Layer utilization (%)
system.tol2bus.respLayer48.occupancy          2522484                       # Layer occupancy (ticks)
system.tol2bus.respLayer48.utilization            0.0                       # Layer utilization (%)
system.tol2bus.respLayer49.occupancy        531358313                       # Layer occupancy (ticks)
system.tol2bus.respLayer49.utilization            2.9                       # Layer utilization (%)
system.tol2bus.respLayer52.occupancy          2712484                       # Layer occupancy (ticks)
system.tol2bus.respLayer52.utilization            0.0                       # Layer utilization (%)
system.tol2bus.respLayer53.occupancy        531519292                       # Layer occupancy (ticks)
system.tol2bus.respLayer53.utilization            2.9                       # Layer utilization (%)
system.tol2bus.respLayer56.occupancy          1962492                       # Layer occupancy (ticks)
system.tol2bus.respLayer56.utilization            0.0                       # Layer utilization (%)
system.tol2bus.respLayer57.occupancy        550005632                       # Layer occupancy (ticks)
system.tol2bus.respLayer57.utilization            3.0                       # Layer utilization (%)
system.tol2bus.respLayer60.occupancy          2437494                       # Layer occupancy (ticks)
system.tol2bus.respLayer60.utilization            0.0                       # Layer utilization (%)
system.tol2bus.respLayer61.occupancy        445894991                       # Layer occupancy (ticks)
system.tol2bus.respLayer61.utilization            2.4                       # Layer utilization (%)
system.tol2bus.respLayer64.occupancy          1752466                       # Layer occupancy (ticks)
system.tol2bus.respLayer64.utilization            0.0                       # Layer utilization (%)
system.tol2bus.respLayer65.occupancy        243714049                       # Layer occupancy (ticks)
system.tol2bus.respLayer65.utilization            1.3                       # Layer utilization (%)

---------- End Simulation Statistics   ----------
