
---------- Begin Simulation Statistics ----------
sim_seconds                                  0.051385                       # Number of seconds simulated
sim_ticks                                 51385095000                       # Number of ticks simulated
final_tick                                51385095000                       # Number of ticks from beginning of simulation (restored from checkpoints and never reset)
sim_freq                                 1000000000000                       # Frequency of simulated ticks
host_inst_rate                                 189642                       # Simulator instruction rate (inst/s)
host_op_rate                                   198432                       # Simulator op (including micro ops) rate (op/s)
host_tick_rate                               48786322                       # Simulator tick rate (ticks/s)
host_mem_usage                                 685052                       # Number of bytes of host memory used
host_seconds                                  1053.27                       # Real time elapsed on the host
sim_insts                                   199744254                       # Number of instructions simulated
sim_ops                                     209001819                       # Number of ops (including micro ops) simulated
system.voltage_domain.voltage                       1                       # Voltage in Volts
system.clk_domain.clock                          1000                       # Clock period in ticks
system.physmem.bytes_read::cpu0.inst            22464                       # Number of bytes read from this memory
system.physmem.bytes_read::cpu0.data            17536                       # Number of bytes read from this memory
system.physmem.bytes_read::cpu1.inst            11456                       # Number of bytes read from this memory
system.physmem.bytes_read::cpu1.data            98944                       # Number of bytes read from this memory
system.physmem.bytes_read::cpu2.inst             7168                       # Number of bytes read from this memory
system.physmem.bytes_read::cpu2.data            99200                       # Number of bytes read from this memory
system.physmem.bytes_read::total               256768                       # Number of bytes read from this memory
system.physmem.bytes_inst_read::cpu0.inst        22464                       # Number of instructions bytes read from this memory
system.physmem.bytes_inst_read::cpu1.inst        11456                       # Number of instructions bytes read from this memory
system.physmem.bytes_inst_read::cpu2.inst         7168                       # Number of instructions bytes read from this memory
system.physmem.bytes_inst_read::total           41088                       # Number of instructions bytes read from this memory
system.physmem.num_reads::cpu0.inst               351                       # Number of read requests responded to by this memory
system.physmem.num_reads::cpu0.data               274                       # Number of read requests responded to by this memory
system.physmem.num_reads::cpu1.inst               179                       # Number of read requests responded to by this memory
system.physmem.num_reads::cpu1.data              1546                       # Number of read requests responded to by this memory
system.physmem.num_reads::cpu2.inst               112                       # Number of read requests responded to by this memory
system.physmem.num_reads::cpu2.data              1550                       # Number of read requests responded to by this memory
system.physmem.num_reads::total                  4012                       # Number of read requests responded to by this memory
system.physmem.bw_read::cpu0.inst              437170                       # Total read bandwidth from this memory (bytes/s)
system.physmem.bw_read::cpu0.data              341266                       # Total read bandwidth from this memory (bytes/s)
system.physmem.bw_read::cpu1.inst              222944                       # Total read bandwidth from this memory (bytes/s)
system.physmem.bw_read::cpu1.data             1925539                       # Total read bandwidth from this memory (bytes/s)
system.physmem.bw_read::cpu2.inst              139496                       # Total read bandwidth from this memory (bytes/s)
system.physmem.bw_read::cpu2.data             1930521                       # Total read bandwidth from this memory (bytes/s)
system.physmem.bw_read::total                 4996935                       # Total read bandwidth from this memory (bytes/s)
system.physmem.bw_inst_read::cpu0.inst         437170                       # Instruction read bandwidth from this memory (bytes/s)
system.physmem.bw_inst_read::cpu1.inst         222944                       # Instruction read bandwidth from this memory (bytes/s)
system.physmem.bw_inst_read::cpu2.inst         139496                       # Instruction read bandwidth from this memory (bytes/s)
system.physmem.bw_inst_read::total             799609                       # Instruction read bandwidth from this memory (bytes/s)
system.physmem.bw_total::cpu0.inst             437170                       # Total bandwidth to/from this memory (bytes/s)
system.physmem.bw_total::cpu0.data             341266                       # Total bandwidth to/from this memory (bytes/s)
system.physmem.bw_total::cpu1.inst             222944                       # Total bandwidth to/from this memory (bytes/s)
system.physmem.bw_total::cpu1.data            1925539                       # Total bandwidth to/from this memory (bytes/s)
system.physmem.bw_total::cpu2.inst             139496                       # Total bandwidth to/from this memory (bytes/s)
system.physmem.bw_total::cpu2.data            1930521                       # Total bandwidth to/from this memory (bytes/s)
system.physmem.bw_total::total                4996935                       # Total bandwidth to/from this memory (bytes/s)
system.cpu0.branchPred.lookups               25681553                       # Number of BP lookups
system.cpu0.branchPred.condPredicted         25680681                       # Number of conditional branches predicted
system.cpu0.branchPred.condIncorrect              572                       # Number of conditional branches incorrect
system.cpu0.branchPred.BTBLookups            25679966                       # Number of BTB lookups
system.cpu0.branchPred.BTBHits               25679578                       # Number of BTB hits
system.cpu0.branchPred.BTBCorrect                   0                       # Number of correct BTB predictions (this stat may not work properly.
system.cpu0.branchPred.BTBHitPct            99.998489                       # BTB Hit Percentage
system.cpu0.branchPred.usedRAS                    276                       # Number of times the RAS was used to get a target.
system.cpu0.branchPred.RASInCorrect                55                       # Number of incorrect RAS predictions.
system.cpu0.dstage2_mmu.stage2_tlb.walker.walks            0                       # Table walker walks requested
system.cpu0.dstage2_mmu.stage2_tlb.walker.walkRequestOrigin_Requested::Data            0                       # Table walker requests started/completed, data/inst
system.cpu0.dstage2_mmu.stage2_tlb.walker.walkRequestOrigin_Requested::Inst            0                       # Table walker requests started/completed, data/inst
system.cpu0.dstage2_mmu.stage2_tlb.walker.walkRequestOrigin_Requested::total            0                       # Table walker requests started/completed, data/inst
system.cpu0.dstage2_mmu.stage2_tlb.walker.walkRequestOrigin_Completed::Data            0                       # Table walker requests started/completed, data/inst
system.cpu0.dstage2_mmu.stage2_tlb.walker.walkRequestOrigin_Completed::Inst            0                       # Table walker requests started/completed, data/inst
system.cpu0.dstage2_mmu.stage2_tlb.walker.walkRequestOrigin_Completed::total            0                       # Table walker requests started/completed, data/inst
system.cpu0.dstage2_mmu.stage2_tlb.walker.walkRequestOrigin::total            0                       # Table walker requests started/completed, data/inst
system.cpu0.dstage2_mmu.stage2_tlb.inst_hits            0                       # ITB inst hits
system.cpu0.dstage2_mmu.stage2_tlb.inst_misses            0                       # ITB inst misses
system.cpu0.dstage2_mmu.stage2_tlb.read_hits            0                       # DTB read hits
system.cpu0.dstage2_mmu.stage2_tlb.read_misses            0                       # DTB read misses
system.cpu0.dstage2_mmu.stage2_tlb.write_hits            0                       # DTB write hits
system.cpu0.dstage2_mmu.stage2_tlb.write_misses            0                       # DTB write misses
system.cpu0.dstage2_mmu.stage2_tlb.flush_tlb            0                       # Number of times complete TLB was flushed
system.cpu0.dstage2_mmu.stage2_tlb.flush_tlb_mva            0                       # Number of times TLB was flushed by MVA
system.cpu0.dstage2_mmu.stage2_tlb.flush_tlb_mva_asid            0                       # Number of times TLB was flushed by MVA & ASID
system.cpu0.dstage2_mmu.stage2_tlb.flush_tlb_asid            0                       # Number of times TLB was flushed by ASID
system.cpu0.dstage2_mmu.stage2_tlb.flush_entries            0                       # Number of entries that have been flushed from TLB
system.cpu0.dstage2_mmu.stage2_tlb.align_faults            0                       # Number of TLB faults due to alignment restrictions
system.cpu0.dstage2_mmu.stage2_tlb.prefetch_faults            0                       # Number of TLB faults due to prefetch
system.cpu0.dstage2_mmu.stage2_tlb.domain_faults            0                       # Number of TLB faults due to domain restrictions
system.cpu0.dstage2_mmu.stage2_tlb.perms_faults            0                       # Number of TLB faults due to permissions restrictions
system.cpu0.dstage2_mmu.stage2_tlb.read_accesses            0                       # DTB read accesses
system.cpu0.dstage2_mmu.stage2_tlb.write_accesses            0                       # DTB write accesses
system.cpu0.dstage2_mmu.stage2_tlb.inst_accesses            0                       # ITB inst accesses
system.cpu0.dstage2_mmu.stage2_tlb.hits             0                       # DTB hits
system.cpu0.dstage2_mmu.stage2_tlb.misses            0                       # DTB misses
system.cpu0.dstage2_mmu.stage2_tlb.accesses            0                       # DTB accesses
system.cpu0.dtb.walker.walks                        0                       # Table walker walks requested
system.cpu0.dtb.walker.walkRequestOrigin_Requested::Data            0                       # Table walker requests started/completed, data/inst
system.cpu0.dtb.walker.walkRequestOrigin_Requested::Inst            0                       # Table walker requests started/completed, data/inst
system.cpu0.dtb.walker.walkRequestOrigin_Requested::total            0                       # Table walker requests started/completed, data/inst
system.cpu0.dtb.walker.walkRequestOrigin_Completed::Data            0                       # Table walker requests started/completed, data/inst
system.cpu0.dtb.walker.walkRequestOrigin_Completed::Inst            0                       # Table walker requests started/completed, data/inst
system.cpu0.dtb.walker.walkRequestOrigin_Completed::total            0                       # Table walker requests started/completed, data/inst
system.cpu0.dtb.walker.walkRequestOrigin::total            0                       # Table walker requests started/completed, data/inst
system.cpu0.dtb.inst_hits                           0                       # ITB inst hits
system.cpu0.dtb.inst_misses                         0                       # ITB inst misses
system.cpu0.dtb.read_hits                           0                       # DTB read hits
system.cpu0.dtb.read_misses                         0                       # DTB read misses
system.cpu0.dtb.write_hits                          0                       # DTB write hits
system.cpu0.dtb.write_misses                        0                       # DTB write misses
system.cpu0.dtb.flush_tlb                           0                       # Number of times complete TLB was flushed
system.cpu0.dtb.flush_tlb_mva                       0                       # Number of times TLB was flushed by MVA
system.cpu0.dtb.flush_tlb_mva_asid                  0                       # Number of times TLB was flushed by MVA & ASID
system.cpu0.dtb.flush_tlb_asid                      0                       # Number of times TLB was flushed by ASID
system.cpu0.dtb.flush_entries                       0                       # Number of entries that have been flushed from TLB
system.cpu0.dtb.align_faults                        0                       # Number of TLB faults due to alignment restrictions
system.cpu0.dtb.prefetch_faults                     0                       # Number of TLB faults due to prefetch
system.cpu0.dtb.domain_faults                       0                       # Number of TLB faults due to domain restrictions
system.cpu0.dtb.perms_faults                        0                       # Number of TLB faults due to permissions restrictions
system.cpu0.dtb.read_accesses                       0                       # DTB read accesses
system.cpu0.dtb.write_accesses                      0                       # DTB write accesses
system.cpu0.dtb.inst_accesses                       0                       # ITB inst accesses
system.cpu0.dtb.hits                                0                       # DTB hits
system.cpu0.dtb.misses                              0                       # DTB misses
system.cpu0.dtb.accesses                            0                       # DTB accesses
system.cpu0.istage2_mmu.stage2_tlb.walker.walks            0                       # Table walker walks requested
system.cpu0.istage2_mmu.stage2_tlb.walker.walkRequestOrigin_Requested::Data            0                       # Table walker requests started/completed, data/inst
system.cpu0.istage2_mmu.stage2_tlb.walker.walkRequestOrigin_Requested::Inst            0                       # Table walker requests started/completed, data/inst
system.cpu0.istage2_mmu.stage2_tlb.walker.walkRequestOrigin_Requested::total            0                       # Table walker requests started/completed, data/inst
system.cpu0.istage2_mmu.stage2_tlb.walker.walkRequestOrigin_Completed::Data            0                       # Table walker requests started/completed, data/inst
system.cpu0.istage2_mmu.stage2_tlb.walker.walkRequestOrigin_Completed::Inst            0                       # Table walker requests started/completed, data/inst
system.cpu0.istage2_mmu.stage2_tlb.walker.walkRequestOrigin_Completed::total            0                       # Table walker requests started/completed, data/inst
system.cpu0.istage2_mmu.stage2_tlb.walker.walkRequestOrigin::total            0                       # Table walker requests started/completed, data/inst
system.cpu0.istage2_mmu.stage2_tlb.inst_hits            0                       # ITB inst hits
system.cpu0.istage2_mmu.stage2_tlb.inst_misses            0                       # ITB inst misses
system.cpu0.istage2_mmu.stage2_tlb.read_hits            0                       # DTB read hits
system.cpu0.istage2_mmu.stage2_tlb.read_misses            0                       # DTB read misses
system.cpu0.istage2_mmu.stage2_tlb.write_hits            0                       # DTB write hits
system.cpu0.istage2_mmu.stage2_tlb.write_misses            0                       # DTB write misses
system.cpu0.istage2_mmu.stage2_tlb.flush_tlb            0                       # Number of times complete TLB was flushed
system.cpu0.istage2_mmu.stage2_tlb.flush_tlb_mva            0                       # Number of times TLB was flushed by MVA
system.cpu0.istage2_mmu.stage2_tlb.flush_tlb_mva_asid            0                       # Number of times TLB was flushed by MVA & ASID
system.cpu0.istage2_mmu.stage2_tlb.flush_tlb_asid            0                       # Number of times TLB was flushed by ASID
system.cpu0.istage2_mmu.stage2_tlb.flush_entries            0                       # Number of entries that have been flushed from TLB
system.cpu0.istage2_mmu.stage2_tlb.align_faults            0                       # Number of TLB faults due to alignment restrictions
system.cpu0.istage2_mmu.stage2_tlb.prefetch_faults            0                       # Number of TLB faults due to prefetch
system.cpu0.istage2_mmu.stage2_tlb.domain_faults            0                       # Number of TLB faults due to domain restrictions
system.cpu0.istage2_mmu.stage2_tlb.perms_faults            0                       # Number of TLB faults due to permissions restrictions
system.cpu0.istage2_mmu.stage2_tlb.read_accesses            0                       # DTB read accesses
system.cpu0.istage2_mmu.stage2_tlb.write_accesses            0                       # DTB write accesses
system.cpu0.istage2_mmu.stage2_tlb.inst_accesses            0                       # ITB inst accesses
system.cpu0.istage2_mmu.stage2_tlb.hits             0                       # DTB hits
system.cpu0.istage2_mmu.stage2_tlb.misses            0                       # DTB misses
system.cpu0.istage2_mmu.stage2_tlb.accesses            0                       # DTB accesses
system.cpu0.itb.walker.walks                        0                       # Table walker walks requested
system.cpu0.itb.walker.walkRequestOrigin_Requested::Data            0                       # Table walker requests started/completed, data/inst
system.cpu0.itb.walker.walkRequestOrigin_Requested::Inst            0                       # Table walker requests started/completed, data/inst
system.cpu0.itb.walker.walkRequestOrigin_Requested::total            0                       # Table walker requests started/completed, data/inst
system.cpu0.itb.walker.walkRequestOrigin_Completed::Data            0                       # Table walker requests started/completed, data/inst
system.cpu0.itb.walker.walkRequestOrigin_Completed::Inst            0                       # Table walker requests started/completed, data/inst
system.cpu0.itb.walker.walkRequestOrigin_Completed::total            0                       # Table walker requests started/completed, data/inst
system.cpu0.itb.walker.walkRequestOrigin::total            0                       # Table walker requests started/completed, data/inst
system.cpu0.itb.inst_hits                           0                       # ITB inst hits
system.cpu0.itb.inst_misses                         0                       # ITB inst misses
system.cpu0.itb.read_hits                           0                       # DTB read hits
system.cpu0.itb.read_misses                         0                       # DTB read misses
system.cpu0.itb.write_hits                          0                       # DTB write hits
system.cpu0.itb.write_misses                        0                       # DTB write misses
system.cpu0.itb.flush_tlb                           0                       # Number of times complete TLB was flushed
system.cpu0.itb.flush_tlb_mva                       0                       # Number of times TLB was flushed by MVA
system.cpu0.itb.flush_tlb_mva_asid                  0                       # Number of times TLB was flushed by MVA & ASID
system.cpu0.itb.flush_tlb_asid                      0                       # Number of times TLB was flushed by ASID
system.cpu0.itb.flush_entries                       0                       # Number of entries that have been flushed from TLB
system.cpu0.itb.align_faults                        0                       # Number of TLB faults due to alignment restrictions
system.cpu0.itb.prefetch_faults                     0                       # Number of TLB faults due to prefetch
system.cpu0.itb.domain_faults                       0                       # Number of TLB faults due to domain restrictions
system.cpu0.itb.perms_faults                        0                       # Number of TLB faults due to permissions restrictions
system.cpu0.itb.read_accesses                       0                       # DTB read accesses
system.cpu0.itb.write_accesses                      0                       # DTB write accesses
system.cpu0.itb.inst_accesses                       0                       # ITB inst accesses
system.cpu0.itb.hits                                0                       # DTB hits
system.cpu0.itb.misses                              0                       # DTB misses
system.cpu0.itb.accesses                            0                       # DTB accesses
system.cpu0.workload.num_syscalls               58994                       # Number of system calls
system.cpu0.numCycles                        51385096                       # number of cpu cycles simulated
system.cpu0.numWorkItemsStarted                     0                       # number of work items this cpu started
system.cpu0.numWorkItemsCompleted                   0                       # number of work items this cpu completed
system.cpu0.fetch.icacheStallCycles              8178                       # Number of cycles fetch is stalled on an Icache miss
system.cpu0.fetch.Insts                     128408595                       # Number of instructions fetch has processed
system.cpu0.fetch.Branches                   25681553                       # Number of branches that fetch encountered
system.cpu0.fetch.predictedBranches          25679854                       # Number of branches that fetch has predicted taken
system.cpu0.fetch.Cycles                     51367800                       # Number of cycles fetch has run and was not squashing or blocked
system.cpu0.fetch.SquashCycles                   1393                       # Number of cycles fetch has spent squashing
system.cpu0.fetch.PendingTrapStallCycles          162                       # Number of stall cycles due to pending traps
system.cpu0.fetch.CacheLines                     1923                       # Number of cache lines fetched
system.cpu0.fetch.IcacheSquashes                  252                       # Number of outstanding Icache misses that were squashed
system.cpu0.fetch.rateDist::samples          51376836                       # Number of instructions fetched each cycle (Total)
system.cpu0.fetch.rateDist::mean             2.499431                       # Number of instructions fetched each cycle (Total)
system.cpu0.fetch.rateDist::stdev            0.501464                       # Number of instructions fetched each cycle (Total)
system.cpu0.fetch.rateDist::underflows              0      0.00%      0.00% # Number of instructions fetched each cycle (Total)
system.cpu0.fetch.rateDist::0                   12364      0.02%      0.02% # Number of instructions fetched each cycle (Total)
system.cpu0.fetch.rateDist::1                     584      0.00%      0.03% # Number of instructions fetched each cycle (Total)
system.cpu0.fetch.rateDist::2                25679398     49.98%     50.01% # Number of instructions fetched each cycle (Total)
system.cpu0.fetch.rateDist::3                25684490     49.99%    100.00% # Number of instructions fetched each cycle (Total)
system.cpu0.fetch.rateDist::overflows               0      0.00%    100.00% # Number of instructions fetched each cycle (Total)
system.cpu0.fetch.rateDist::min_value               0                       # Number of instructions fetched each cycle (Total)
system.cpu0.fetch.rateDist::max_value               3                       # Number of instructions fetched each cycle (Total)
system.cpu0.fetch.rateDist::total            51376836                       # Number of instructions fetched each cycle (Total)
system.cpu0.fetch.branchRate                 0.499786                       # Number of branch fetches per cycle
system.cpu0.fetch.rate                       2.498946                       # Number of inst fetches per cycle
system.cpu0.decode.IdleCycles                    7862                       # Number of cycles decode is idle
system.cpu0.decode.BlockedCycles                 5083                       # Number of cycles decode is blocked
system.cpu0.decode.RunCycles                 51362600                       # Number of cycles decode is running
system.cpu0.decode.UnblockCycles                  788                       # Number of cycles decode is unblocking
system.cpu0.decode.SquashCycles                   503                       # Number of cycles decode is squashing
system.cpu0.decode.BranchResolved                 351                       # Number of times decode resolved a branch
system.cpu0.decode.BranchMispred                  199                       # Number of times decode detected a branch misprediction
system.cpu0.decode.DecodedInsts             128410395                       # Number of instructions handled by decode
system.cpu0.decode.SquashedInsts                  462                       # Number of squashed instructions handled by decode
system.cpu0.rename.SquashCycles                   503                       # Number of cycles rename is squashing
system.cpu0.rename.IdleCycles                    8493                       # Number of cycles rename is idle
system.cpu0.rename.BlockCycles                    599                       # Number of cycles rename is blocking
system.cpu0.rename.serializeStallCycles          1767                       # count of cycles rename stalled for serializing inst
system.cpu0.rename.RunCycles                 51362647                       # Number of cycles rename is running
system.cpu0.rename.UnblockCycles                 2827                       # Number of cycles rename is unblocking
system.cpu0.rename.RenamedInsts             128409514                       # Number of instructions processed by rename
system.cpu0.rename.IQFullEvents                    20                       # Number of times rename has blocked due to IQ full
system.cpu0.rename.LQFullEvents                    11                       # Number of times rename has blocked due to LQ full
system.cpu0.rename.SQFullEvents                  2656                       # Number of times rename has blocked due to SQ full
system.cpu0.rename.RenamedOperands          128411115                       # Number of destination operands rename has renamed
system.cpu0.rename.RenameLookups            590688352                       # Number of register rename lookups that rename has made
system.cpu0.rename.int_rename_lookups       128414684                       # Number of integer rename lookups
system.cpu0.rename.fp_rename_lookups               16                       # Number of floating rename lookups
system.cpu0.rename.CommittedMaps            128404201                       # Number of HB maps that are committed
system.cpu0.rename.UndoneMaps                    6914                       # Number of HB maps that are undone due to squashing
system.cpu0.rename.serializingInsts                48                       # count of serializing insts renamed
system.cpu0.rename.tempSerializingInsts            47                       # count of temporary serializing insts renamed
system.cpu0.rename.skidInsts                     1218                       # count of insts added to the skid buffer
system.cpu0.memDep0.insertedLoads            51359098                       # Number of loads inserted to the mem dependence unit.
system.cpu0.memDep0.insertedStores           25682068                       # Number of stores inserted to the mem dependence unit.
system.cpu0.memDep0.conflictingLoads         25678059                       # Number of conflicting loads.
system.cpu0.memDep0.conflictingStores        25678032                       # Number of conflicting stores.
system.cpu0.iq.iqInstsAdded                 128407865                       # Number of instructions added to the IQ (excludes non-spec)
system.cpu0.iq.iqNonSpecInstsAdded                 70                       # Number of non-speculative instructions added to the IQ
system.cpu0.iq.iqInstsIssued                128405822                       # Number of instructions issued
system.cpu0.iq.iqSquashedInstsIssued              365                       # Number of squashed instructions issued
system.cpu0.iq.iqSquashedInstsExamined           4767                       # Number of squashed instructions iterated over during squash; mainly for profiling
system.cpu0.iq.iqSquashedOperandsExamined        12281                       # Number of squashed operands that are examined and possibly removed from graph
system.cpu0.iq.iqSquashedNonSpecRemoved             5                       # Number of squashed non-spec instructions that were removed
system.cpu0.iq.issued_per_cycle::samples     51376836                       # Number of insts issued each cycle
system.cpu0.iq.issued_per_cycle::mean        2.499294                       # Number of insts issued each cycle
system.cpu0.iq.issued_per_cycle::stdev       0.708192                       # Number of insts issued each cycle
system.cpu0.iq.issued_per_cycle::underflows            0      0.00%      0.00% # Number of insts issued each cycle
system.cpu0.iq.issued_per_cycle::0              13006      0.03%      0.03% # Number of insts issued each cycle
system.cpu0.iq.issued_per_cycle::1            6422539     12.50%     12.53% # Number of insts issued each cycle
system.cpu0.iq.issued_per_cycle::2           12840590     24.99%     37.52% # Number of insts issued each cycle
system.cpu0.iq.issued_per_cycle::3           32100701     62.48%    100.00% # Number of insts issued each cycle
system.cpu0.iq.issued_per_cycle::overflows            0      0.00%    100.00% # Number of insts issued each cycle
system.cpu0.iq.issued_per_cycle::min_value            0                       # Number of insts issued each cycle
system.cpu0.iq.issued_per_cycle::max_value            3                       # Number of insts issued each cycle
system.cpu0.iq.issued_per_cycle::total       51376836                       # Number of insts issued each cycle
system.cpu0.iq.fu_full::No_OpClass                  0                       # attempts to use FU when none available
system.cpu0.iq.fu_full::IntAlu                      0                       # attempts to use FU when none available
system.cpu0.iq.fu_full::IntMult                     0                       # attempts to use FU when none available
system.cpu0.iq.fu_full::IntDiv                      0                       # attempts to use FU when none available
system.cpu0.iq.fu_full::FloatAdd                    0                       # attempts to use FU when none available
system.cpu0.iq.fu_full::FloatCmp                    0                       # attempts to use FU when none available
system.cpu0.iq.fu_full::FloatCvt                    0                       # attempts to use FU when none available
system.cpu0.iq.fu_full::FloatMult                   0                       # attempts to use FU when none available
system.cpu0.iq.fu_full::FloatDiv                    0                       # attempts to use FU when none available
system.cpu0.iq.fu_full::FloatSqrt                   0                       # attempts to use FU when none available
system.cpu0.iq.fu_full::SimdAdd                     0                       # attempts to use FU when none available
system.cpu0.iq.fu_full::SimdAddAcc                  0                       # attempts to use FU when none available
system.cpu0.iq.fu_full::SimdAlu                     0                       # attempts to use FU when none available
system.cpu0.iq.fu_full::SimdCmp                     0                       # attempts to use FU when none available
system.cpu0.iq.fu_full::SimdCvt                     0                       # attempts to use FU when none available
system.cpu0.iq.fu_full::SimdMisc                    0                       # attempts to use FU when none available
system.cpu0.iq.fu_full::SimdMult                    0                       # attempts to use FU when none available
system.cpu0.iq.fu_full::SimdMultAcc                 0                       # attempts to use FU when none available
system.cpu0.iq.fu_full::SimdShift                   0                       # attempts to use FU when none available
system.cpu0.iq.fu_full::SimdShiftAcc                0                       # attempts to use FU when none available
system.cpu0.iq.fu_full::SimdSqrt                    0                       # attempts to use FU when none available
system.cpu0.iq.fu_full::SimdFloatAdd                0                       # attempts to use FU when none available
system.cpu0.iq.fu_full::SimdFloatAlu                0                       # attempts to use FU when none available
system.cpu0.iq.fu_full::SimdFloatCmp                0                       # attempts to use FU when none available
system.cpu0.iq.fu_full::SimdFloatCvt                0                       # attempts to use FU when none available
system.cpu0.iq.fu_full::SimdFloatDiv                0                       # attempts to use FU when none available
system.cpu0.iq.fu_full::SimdFloatMisc               0                       # attempts to use FU when none available
system.cpu0.iq.fu_full::SimdFloatMult               0                       # attempts to use FU when none available
system.cpu0.iq.fu_full::SimdFloatMultAcc            0                       # attempts to use FU when none available
system.cpu0.iq.fu_full::SimdFloatSqrt               0                       # attempts to use FU when none available
system.cpu0.iq.fu_full::MemRead                     0                       # attempts to use FU when none available
system.cpu0.iq.fu_full::MemWrite                    0                       # attempts to use FU when none available
system.cpu0.iq.fu_full::IprAccess                   0                       # attempts to use FU when none available
system.cpu0.iq.fu_full::InstPrefetch                0                       # attempts to use FU when none available
system.cpu0.iq.FU_type_0::No_OpClass                0      0.00%      0.00% # Type of FU issued
system.cpu0.iq.FU_type_0::IntAlu             51365322     40.00%     40.00% # Type of FU issued
system.cpu0.iq.FU_type_0::IntMult                   6      0.00%     40.00% # Type of FU issued
system.cpu0.iq.FU_type_0::IntDiv                    0      0.00%     40.00% # Type of FU issued
system.cpu0.iq.FU_type_0::FloatAdd                  0      0.00%     40.00% # Type of FU issued
system.cpu0.iq.FU_type_0::FloatCmp                  0      0.00%     40.00% # Type of FU issued
system.cpu0.iq.FU_type_0::FloatCvt                  0      0.00%     40.00% # Type of FU issued
system.cpu0.iq.FU_type_0::FloatMult                 0      0.00%     40.00% # Type of FU issued
system.cpu0.iq.FU_type_0::FloatDiv                  0      0.00%     40.00% # Type of FU issued
system.cpu0.iq.FU_type_0::FloatSqrt                 0      0.00%     40.00% # Type of FU issued
system.cpu0.iq.FU_type_0::SimdAdd                   0      0.00%     40.00% # Type of FU issued
system.cpu0.iq.FU_type_0::SimdAddAcc                0      0.00%     40.00% # Type of FU issued
system.cpu0.iq.FU_type_0::SimdAlu                   0      0.00%     40.00% # Type of FU issued
system.cpu0.iq.FU_type_0::SimdCmp                   0      0.00%     40.00% # Type of FU issued
system.cpu0.iq.FU_type_0::SimdCvt                   0      0.00%     40.00% # Type of FU issued
system.cpu0.iq.FU_type_0::SimdMisc                  0      0.00%     40.00% # Type of FU issued
system.cpu0.iq.FU_type_0::SimdMult                  0      0.00%     40.00% # Type of FU issued
system.cpu0.iq.FU_type_0::SimdMultAcc               0      0.00%     40.00% # Type of FU issued
system.cpu0.iq.FU_type_0::SimdShift                 0      0.00%     40.00% # Type of FU issued
system.cpu0.iq.FU_type_0::SimdShiftAcc              0      0.00%     40.00% # Type of FU issued
system.cpu0.iq.FU_type_0::SimdSqrt                  0      0.00%     40.00% # Type of FU issued
system.cpu0.iq.FU_type_0::SimdFloatAdd              0      0.00%     40.00% # Type of FU issued
system.cpu0.iq.FU_type_0::SimdFloatAlu              0      0.00%     40.00% # Type of FU issued
system.cpu0.iq.FU_type_0::SimdFloatCmp              0      0.00%     40.00% # Type of FU issued
system.cpu0.iq.FU_type_0::SimdFloatCvt              0      0.00%     40.00% # Type of FU issued
system.cpu0.iq.FU_type_0::SimdFloatDiv              0      0.00%     40.00% # Type of FU issued
system.cpu0.iq.FU_type_0::SimdFloatMisc             3      0.00%     40.00% # Type of FU issued
system.cpu0.iq.FU_type_0::SimdFloatMult             0      0.00%     40.00% # Type of FU issued
system.cpu0.iq.FU_type_0::SimdFloatMultAcc            0      0.00%     40.00% # Type of FU issued
system.cpu0.iq.FU_type_0::SimdFloatSqrt             0      0.00%     40.00% # Type of FU issued
system.cpu0.iq.FU_type_0::MemRead            51358674     40.00%     80.00% # Type of FU issued
system.cpu0.iq.FU_type_0::MemWrite           25681817     20.00%    100.00% # Type of FU issued
system.cpu0.iq.FU_type_0::IprAccess                 0      0.00%    100.00% # Type of FU issued
system.cpu0.iq.FU_type_0::InstPrefetch              0      0.00%    100.00% # Type of FU issued
system.cpu0.iq.FU_type_0::total             128405822                       # Type of FU issued
system.cpu0.iq.rate                          2.498892                       # Inst issue rate
system.cpu0.iq.fu_busy_cnt                          0                       # FU busy when requested
system.cpu0.iq.fu_busy_rate                         0                       # FU busy rate (busy events/executed inst)
system.cpu0.iq.int_inst_queue_reads         308188813                       # Number of integer instruction queue reads
system.cpu0.iq.int_inst_queue_writes        128412799                       # Number of integer instruction queue writes
system.cpu0.iq.int_inst_queue_wakeup_accesses    128405055                       # Number of integer instruction queue wakeup accesses
system.cpu0.iq.fp_inst_queue_reads                 32                       # Number of floating instruction queue reads
system.cpu0.iq.fp_inst_queue_writes                16                       # Number of floating instruction queue writes
system.cpu0.iq.fp_inst_queue_wakeup_accesses           16                       # Number of floating instruction queue wakeup accesses
system.cpu0.iq.int_alu_accesses             128405806                       # Number of integer alu accesses
system.cpu0.iq.fp_alu_accesses                     16                       # Number of floating point alu accesses
system.cpu0.iew.lsq.thread0.forwLoads        25678260                       # Number of loads that had data forwarded from stores
system.cpu0.iew.lsq.thread0.invAddrLoads            0                       # Number of loads ignored due to an invalid address
system.cpu0.iew.lsq.thread0.squashedLoads         1345                       # Number of loads squashed
system.cpu0.iew.lsq.thread0.ignoredResponses            2                       # Number of memory responses ignored because the instruction is squashed
system.cpu0.iew.lsq.thread0.memOrderViolation          113                       # Number of memory ordering violations
system.cpu0.iew.lsq.thread0.squashedStores          498                       # Number of stores squashed
system.cpu0.iew.lsq.thread0.invAddrSwpfs            0                       # Number of software prefetches ignored due to an invalid address
system.cpu0.iew.lsq.thread0.blockedLoads            0                       # Number of blocked loads due to partial load-store forwarding
system.cpu0.iew.lsq.thread0.rescheduledLoads            4                       # Number of loads that were rescheduled
system.cpu0.iew.lsq.thread0.cacheBlocked            0                       # Number of times an access to memory failed due to the cache being blocked
system.cpu0.iew.iewIdleCycles                       0                       # Number of cycles IEW is idle
system.cpu0.iew.iewSquashCycles                   503                       # Number of cycles IEW is squashing
system.cpu0.iew.iewBlockCycles                    460                       # Number of cycles IEW is blocking
system.cpu0.iew.iewUnblockCycles                  137                       # Number of cycles IEW is unblocking
system.cpu0.iew.iewDispatchedInsts          128407954                       # Number of instructions dispatched to IQ
system.cpu0.iew.iewDispSquashedInsts              244                       # Number of squashed instructions skipped by dispatch
system.cpu0.iew.iewDispLoadInsts             51359098                       # Number of dispatched load instructions
system.cpu0.iew.iewDispStoreInsts            25682068                       # Number of dispatched store instructions
system.cpu0.iew.iewDispNonSpecInsts                44                       # Number of dispatched non-speculative instructions
system.cpu0.iew.iewIQFullEvents                    11                       # Number of times the IQ has become full, causing a stall
system.cpu0.iew.iewLSQFullEvents                    0                       # Number of times the LSQ has become full, causing a stall
system.cpu0.iew.memOrderViolationEvents           113                       # Number of memory order violations
system.cpu0.iew.predictedTakenIncorrect           104                       # Number of branches that were predicted taken incorrectly
system.cpu0.iew.predictedNotTakenIncorrect          298                       # Number of branches that were predicted not taken incorrectly
system.cpu0.iew.branchMispredicts                 402                       # Number of branch mispredicts detected at execute
system.cpu0.iew.iewExecutedInsts            128405359                       # Number of executed instructions
system.cpu0.iew.iewExecLoadInsts             51358562                       # Number of load instructions executed
system.cpu0.iew.iewExecSquashedInsts              463                       # Number of squashed instructions skipped in execute
system.cpu0.iew.exec_swp                            0                       # number of swp insts executed
system.cpu0.iew.exec_nop                           19                       # number of nop insts executed
system.cpu0.iew.exec_refs                    77040241                       # number of memory reference insts executed
system.cpu0.iew.exec_branches                25680149                       # Number of branches executed
system.cpu0.iew.exec_forward_branches             810                       # Number of forward branches executed
system.cpu0.iew.exec_backward_branches       25679035                       # Number of backward branches executed
system.cpu0.iew.exec_taken_forward_branches          298                       # Number of forward branches executed that is taken
system.cpu0.iew.exec_nottaken_forward_branches          512                       # Number of forward branches executed that is not taken
system.cpu0.iew.exec_taken_backward_branches     25678801                       # Number of backward branches executed that is taken
system.cpu0.iew.exec_nottaken_backward_branches          234                       # Number of backward branches executed that is not taken
system.cpu0.iew.exec_stores                  25681679                       # Number of stores executed
system.cpu0.iew.exec_rate                    2.498883                       # Inst execution rate
system.cpu0.iew.wb_sent                     128405142                       # cumulative count of insts sent to commit
system.cpu0.iew.wb_count                    128405071                       # cumulative count of insts written-back
system.cpu0.iew.wb_producers                 77040943                       # num instructions producing a value
system.cpu0.iew.wb_consumers                 77050850                       # num instructions consuming a value
system.cpu0.iew.wb_penalized                        0                       # number of instrctions required to write to 'other' IQ
system.cpu0.iew.wb_rate                      2.498878                       # insts written-back per cycle
system.cpu0.iew.wb_fanout                    0.999871                       # average fanout of values written-back
system.cpu0.iew.wb_penalized_rate                   0                       # fraction of instructions written-back that wrote to 'other' IQ
system.cpu0.commit.commitSquashedInsts           4785                       # The number of squashed insts skipped by commit
system.cpu0.commit.commitNonSpecStalls             65                       # The number of times commit has been forced to stall to communicate backwards
system.cpu0.commit.branchMispredicts              379                       # The number of times a branch was mispredicted
system.cpu0.commit.committed_per_cycle::samples     51375976                       # Number of insts commited each cycle
system.cpu0.commit.committed_per_cycle::mean     2.499284                       # Number of insts commited each cycle
system.cpu0.commit.committed_per_cycle::stdev     1.581447                       # Number of insts commited each cycle
system.cpu0.commit.committed_per_cycle::underflows            0      0.00%      0.00% # Number of insts commited each cycle
system.cpu0.commit.committed_per_cycle::0        13902      0.03%      0.03% # Number of insts commited each cycle
system.cpu0.commit.committed_per_cycle::1     25680591     49.99%     50.01% # Number of insts commited each cycle
system.cpu0.commit.committed_per_cycle::2         1213      0.00%     50.02% # Number of insts commited each cycle
system.cpu0.commit.committed_per_cycle::3      6421349     12.50%     62.51% # Number of insts commited each cycle
system.cpu0.commit.committed_per_cycle::4     12839069     24.99%     87.50% # Number of insts commited each cycle
system.cpu0.commit.committed_per_cycle::5      6419572     12.50%    100.00% # Number of insts commited each cycle
system.cpu0.commit.committed_per_cycle::6           71      0.00%    100.00% # Number of insts commited each cycle
system.cpu0.commit.committed_per_cycle::7          130      0.00%    100.00% # Number of insts commited each cycle
system.cpu0.commit.committed_per_cycle::8           79      0.00%    100.00% # Number of insts commited each cycle
system.cpu0.commit.committed_per_cycle::overflows            0      0.00%    100.00% # Number of insts commited each cycle
system.cpu0.commit.committed_per_cycle::min_value            0                       # Number of insts commited each cycle
system.cpu0.commit.committed_per_cycle::max_value            8                       # Number of insts commited each cycle
system.cpu0.commit.committed_per_cycle::total     51375976                       # Number of insts commited each cycle
system.cpu0.commit.committedInsts           128399837                       # Number of instructions committed
system.cpu0.commit.committedOps             128403168                       # Number of ops (including micro ops) committed
system.cpu0.commit.swp_count                        0                       # Number of s/w prefetches committed
system.cpu0.commit.refs                      77039323                       # Number of memory references committed
system.cpu0.commit.loads                     51357753                       # Number of loads committed
system.cpu0.commit.membars                         26                       # Number of memory barriers committed
system.cpu0.commit.branches                  25679784                       # Number of branches committed
system.cpu0.commit.fp_insts                        16                       # Number of committed floating point instructions.
system.cpu0.commit.int_insts                102723758                       # Number of committed integer instructions.
system.cpu0.commit.function_calls                 146                       # Number of function calls committed.
system.cpu0.commit.op_class_0::No_OpClass            0      0.00%      0.00% # Class of committed instruction
system.cpu0.commit.op_class_0::IntAlu        51363836     40.00%     40.00% # Class of committed instruction
system.cpu0.commit.op_class_0::IntMult              6      0.00%     40.00% # Class of committed instruction
system.cpu0.commit.op_class_0::IntDiv               0      0.00%     40.00% # Class of committed instruction
system.cpu0.commit.op_class_0::FloatAdd             0      0.00%     40.00% # Class of committed instruction
system.cpu0.commit.op_class_0::FloatCmp             0      0.00%     40.00% # Class of committed instruction
system.cpu0.commit.op_class_0::FloatCvt             0      0.00%     40.00% # Class of committed instruction
system.cpu0.commit.op_class_0::FloatMult            0      0.00%     40.00% # Class of committed instruction
system.cpu0.commit.op_class_0::FloatDiv             0      0.00%     40.00% # Class of committed instruction
system.cpu0.commit.op_class_0::FloatSqrt            0      0.00%     40.00% # Class of committed instruction
system.cpu0.commit.op_class_0::SimdAdd              0      0.00%     40.00% # Class of committed instruction
system.cpu0.commit.op_class_0::SimdAddAcc            0      0.00%     40.00% # Class of committed instruction
system.cpu0.commit.op_class_0::SimdAlu              0      0.00%     40.00% # Class of committed instruction
system.cpu0.commit.op_class_0::SimdCmp              0      0.00%     40.00% # Class of committed instruction
system.cpu0.commit.op_class_0::SimdCvt              0      0.00%     40.00% # Class of committed instruction
system.cpu0.commit.op_class_0::SimdMisc             0      0.00%     40.00% # Class of committed instruction
system.cpu0.commit.op_class_0::SimdMult             0      0.00%     40.00% # Class of committed instruction
system.cpu0.commit.op_class_0::SimdMultAcc            0      0.00%     40.00% # Class of committed instruction
system.cpu0.commit.op_class_0::SimdShift            0      0.00%     40.00% # Class of committed instruction
system.cpu0.commit.op_class_0::SimdShiftAcc            0      0.00%     40.00% # Class of committed instruction
system.cpu0.commit.op_class_0::SimdSqrt             0      0.00%     40.00% # Class of committed instruction
system.cpu0.commit.op_class_0::SimdFloatAdd            0      0.00%     40.00% # Class of committed instruction
system.cpu0.commit.op_class_0::SimdFloatAlu            0      0.00%     40.00% # Class of committed instruction
system.cpu0.commit.op_class_0::SimdFloatCmp            0      0.00%     40.00% # Class of committed instruction
system.cpu0.commit.op_class_0::SimdFloatCvt            0      0.00%     40.00% # Class of committed instruction
system.cpu0.commit.op_class_0::SimdFloatDiv            0      0.00%     40.00% # Class of committed instruction
system.cpu0.commit.op_class_0::SimdFloatMisc            3      0.00%     40.00% # Class of committed instruction
system.cpu0.commit.op_class_0::SimdFloatMult            0      0.00%     40.00% # Class of committed instruction
system.cpu0.commit.op_class_0::SimdFloatMultAcc            0      0.00%     40.00% # Class of committed instruction
system.cpu0.commit.op_class_0::SimdFloatSqrt            0      0.00%     40.00% # Class of committed instruction
system.cpu0.commit.op_class_0::MemRead       51357753     40.00%     80.00% # Class of committed instruction
system.cpu0.commit.op_class_0::MemWrite      25681570     20.00%    100.00% # Class of committed instruction
system.cpu0.commit.op_class_0::IprAccess            0      0.00%    100.00% # Class of committed instruction
system.cpu0.commit.op_class_0::InstPrefetch            0      0.00%    100.00% # Class of committed instruction
system.cpu0.commit.op_class_0::total        128403168                       # Class of committed instruction
system.cpu0.commit.bw_lim_events                   79                       # number cycles where commit BW limit reached
system.cpu0.rob.rob_reads                   179783693                       # The number of ROB reads
system.cpu0.rob.rob_writes                  256816770                       # The number of ROB writes
system.cpu0.timesIdled                            249                       # Number of times that the entire CPU went into an idle state and unscheduled itself
system.cpu0.idleCycles                           8260                       # Total number of cycles that the CPU has spent unscheduled due to idling
system.cpu0.committedInsts                  128399837                       # Number of Instructions Simulated
system.cpu0.committedOps                    128403168                       # Number of Ops (including micro ops) Simulated
system.cpu0.cpi                              0.400196                       # CPI: Cycles Per Instruction
system.cpu0.cpi_total                        0.400196                       # CPI: Total CPI of All Threads
system.cpu0.ipc                              2.498776                       # IPC: Instructions Per Cycle
system.cpu0.ipc_total                        2.498776                       # IPC: Total IPC of All Threads
system.cpu0.int_regfile_reads               128407792                       # number of integer regfile reads
system.cpu0.int_regfile_writes               51364345                       # number of integer regfile writes
system.cpu0.fp_regfile_reads                      336                       # number of floating regfile reads
system.cpu0.cc_regfile_reads                539290845                       # number of cc regfile reads
system.cpu0.cc_regfile_writes                77041874                       # number of cc regfile writes
system.cpu0.misc_regfile_reads               78356426                       # number of misc regfile reads
system.cpu0.misc_regfile_writes                    52                       # number of misc regfile writes
system.cpu0.dcache.tags.replacements               27                       # number of replacements
system.cpu0.dcache.tags.tagsinuse          125.638281                       # Cycle average of tags in use
system.cpu0.dcache.tags.total_refs           51358924                       # Total number of references to valid blocks.
system.cpu0.dcache.tags.sampled_refs              173                       # Sample count of references to valid blocks.
system.cpu0.dcache.tags.avg_refs         296872.393064                       # Average number of references to valid blocks.
system.cpu0.dcache.tags.warmup_cycle                0                       # Cycle when the warmup percentage was hit.
system.cpu0.dcache.tags.occ_blocks::cpu0.data   125.638281                       # Average occupied blocks per requestor
system.cpu0.dcache.tags.occ_percent::cpu0.data     0.245387                       # Average percentage of cache occupancy
system.cpu0.dcache.tags.occ_percent::total     0.245387                       # Average percentage of cache occupancy
system.cpu0.dcache.tags.occ_task_id_blocks::1024          146                       # Occupied blocks per task id
system.cpu0.dcache.tags.age_task_id_blocks_1024::0           26                       # Occupied blocks per task id
system.cpu0.dcache.tags.age_task_id_blocks_1024::4          120                       # Occupied blocks per task id
system.cpu0.dcache.tags.occ_task_id_percent::1024     0.285156                       # Percentage of cache occupancy per task id
system.cpu0.dcache.tags.tag_accesses        102723705                       # Number of tag accesses
system.cpu0.dcache.tags.data_accesses       102723705                       # Number of data accesses
system.cpu0.dcache.ReadReq_hits::cpu0.data     25679938                       # number of ReadReq hits
system.cpu0.dcache.ReadReq_hits::total       25679938                       # number of ReadReq hits
system.cpu0.dcache.WriteReq_hits::cpu0.data     25679132                       # number of WriteReq hits
system.cpu0.dcache.WriteReq_hits::total      25679132                       # number of WriteReq hits
system.cpu0.dcache.LoadLockedReq_hits::cpu0.data           22                       # number of LoadLockedReq hits
system.cpu0.dcache.LoadLockedReq_hits::total           22                       # number of LoadLockedReq hits
system.cpu0.dcache.StoreCondReq_hits::cpu0.data           24                       # number of StoreCondReq hits
system.cpu0.dcache.StoreCondReq_hits::total           24                       # number of StoreCondReq hits
system.cpu0.dcache.demand_hits::cpu0.data     51359070                       # number of demand (read+write) hits
system.cpu0.dcache.demand_hits::total        51359070                       # number of demand (read+write) hits
system.cpu0.dcache.overall_hits::cpu0.data     51359070                       # number of overall hits
system.cpu0.dcache.overall_hits::total       51359070                       # number of overall hits
system.cpu0.dcache.ReadReq_misses::cpu0.data          207                       # number of ReadReq misses
system.cpu0.dcache.ReadReq_misses::total          207                       # number of ReadReq misses
system.cpu0.dcache.WriteReq_misses::cpu0.data         2368                       # number of WriteReq misses
system.cpu0.dcache.WriteReq_misses::total         2368                       # number of WriteReq misses
system.cpu0.dcache.LoadLockedReq_misses::cpu0.data            3                       # number of LoadLockedReq misses
system.cpu0.dcache.LoadLockedReq_misses::total            3                       # number of LoadLockedReq misses
system.cpu0.dcache.StoreCondReq_misses::cpu0.data            1                       # number of StoreCondReq misses
system.cpu0.dcache.StoreCondReq_misses::total            1                       # number of StoreCondReq misses
system.cpu0.dcache.demand_misses::cpu0.data         2575                       # number of demand (read+write) misses
system.cpu0.dcache.demand_misses::total          2575                       # number of demand (read+write) misses
system.cpu0.dcache.overall_misses::cpu0.data         2575                       # number of overall misses
system.cpu0.dcache.overall_misses::total         2575                       # number of overall misses
system.cpu0.dcache.ReadReq_miss_latency::cpu0.data      9280493                       # number of ReadReq miss cycles
system.cpu0.dcache.ReadReq_miss_latency::total      9280493                       # number of ReadReq miss cycles
system.cpu0.dcache.WriteReq_miss_latency::cpu0.data    118620000                       # number of WriteReq miss cycles
system.cpu0.dcache.WriteReq_miss_latency::total    118620000                       # number of WriteReq miss cycles
system.cpu0.dcache.LoadLockedReq_miss_latency::cpu0.data       133500                       # number of LoadLockedReq miss cycles
system.cpu0.dcache.LoadLockedReq_miss_latency::total       133500                       # number of LoadLockedReq miss cycles
system.cpu0.dcache.StoreCondReq_miss_latency::cpu0.data         7500                       # number of StoreCondReq miss cycles
system.cpu0.dcache.StoreCondReq_miss_latency::total         7500                       # number of StoreCondReq miss cycles
system.cpu0.dcache.demand_miss_latency::cpu0.data    127900493                       # number of demand (read+write) miss cycles
system.cpu0.dcache.demand_miss_latency::total    127900493                       # number of demand (read+write) miss cycles
system.cpu0.dcache.overall_miss_latency::cpu0.data    127900493                       # number of overall miss cycles
system.cpu0.dcache.overall_miss_latency::total    127900493                       # number of overall miss cycles
system.cpu0.dcache.ReadReq_accesses::cpu0.data     25680145                       # number of ReadReq accesses(hits+misses)
system.cpu0.dcache.ReadReq_accesses::total     25680145                       # number of ReadReq accesses(hits+misses)
system.cpu0.dcache.WriteReq_accesses::cpu0.data     25681500                       # number of WriteReq accesses(hits+misses)
system.cpu0.dcache.WriteReq_accesses::total     25681500                       # number of WriteReq accesses(hits+misses)
system.cpu0.dcache.LoadLockedReq_accesses::cpu0.data           25                       # number of LoadLockedReq accesses(hits+misses)
system.cpu0.dcache.LoadLockedReq_accesses::total           25                       # number of LoadLockedReq accesses(hits+misses)
system.cpu0.dcache.StoreCondReq_accesses::cpu0.data           25                       # number of StoreCondReq accesses(hits+misses)
system.cpu0.dcache.StoreCondReq_accesses::total           25                       # number of StoreCondReq accesses(hits+misses)
system.cpu0.dcache.demand_accesses::cpu0.data     51361645                       # number of demand (read+write) accesses
system.cpu0.dcache.demand_accesses::total     51361645                       # number of demand (read+write) accesses
system.cpu0.dcache.overall_accesses::cpu0.data     51361645                       # number of overall (read+write) accesses
system.cpu0.dcache.overall_accesses::total     51361645                       # number of overall (read+write) accesses
system.cpu0.dcache.ReadReq_miss_rate::cpu0.data     0.000008                       # miss rate for ReadReq accesses
system.cpu0.dcache.ReadReq_miss_rate::total     0.000008                       # miss rate for ReadReq accesses
system.cpu0.dcache.WriteReq_miss_rate::cpu0.data     0.000092                       # miss rate for WriteReq accesses
system.cpu0.dcache.WriteReq_miss_rate::total     0.000092                       # miss rate for WriteReq accesses
system.cpu0.dcache.LoadLockedReq_miss_rate::cpu0.data     0.120000                       # miss rate for LoadLockedReq accesses
system.cpu0.dcache.LoadLockedReq_miss_rate::total     0.120000                       # miss rate for LoadLockedReq accesses
system.cpu0.dcache.StoreCondReq_miss_rate::cpu0.data     0.040000                       # miss rate for StoreCondReq accesses
system.cpu0.dcache.StoreCondReq_miss_rate::total     0.040000                       # miss rate for StoreCondReq accesses
system.cpu0.dcache.demand_miss_rate::cpu0.data     0.000050                       # miss rate for demand accesses
system.cpu0.dcache.demand_miss_rate::total     0.000050                       # miss rate for demand accesses
system.cpu0.dcache.overall_miss_rate::cpu0.data     0.000050                       # miss rate for overall accesses
system.cpu0.dcache.overall_miss_rate::total     0.000050                       # miss rate for overall accesses
system.cpu0.dcache.ReadReq_avg_miss_latency::cpu0.data 44833.299517                       # average ReadReq miss latency
system.cpu0.dcache.ReadReq_avg_miss_latency::total 44833.299517                       # average ReadReq miss latency
system.cpu0.dcache.WriteReq_avg_miss_latency::cpu0.data 50092.905405                       # average WriteReq miss latency
system.cpu0.dcache.WriteReq_avg_miss_latency::total 50092.905405                       # average WriteReq miss latency
system.cpu0.dcache.LoadLockedReq_avg_miss_latency::cpu0.data        44500                       # average LoadLockedReq miss latency
system.cpu0.dcache.LoadLockedReq_avg_miss_latency::total        44500                       # average LoadLockedReq miss latency
system.cpu0.dcache.StoreCondReq_avg_miss_latency::cpu0.data         7500                       # average StoreCondReq miss latency
system.cpu0.dcache.StoreCondReq_avg_miss_latency::total         7500                       # average StoreCondReq miss latency
system.cpu0.dcache.demand_avg_miss_latency::cpu0.data 49670.094369                       # average overall miss latency
system.cpu0.dcache.demand_avg_miss_latency::total 49670.094369                       # average overall miss latency
system.cpu0.dcache.overall_avg_miss_latency::cpu0.data 49670.094369                       # average overall miss latency
system.cpu0.dcache.overall_avg_miss_latency::total 49670.094369                       # average overall miss latency
system.cpu0.dcache.blocked_cycles::no_mshrs            0                       # number of cycles access was blocked
system.cpu0.dcache.blocked_cycles::no_targets            0                       # number of cycles access was blocked
system.cpu0.dcache.blocked::no_mshrs                0                       # number of cycles access was blocked
system.cpu0.dcache.blocked::no_targets              0                       # number of cycles access was blocked
system.cpu0.dcache.avg_blocked_cycles::no_mshrs          nan                       # average number of cycles each access was blocked
system.cpu0.dcache.avg_blocked_cycles::no_targets          nan                       # average number of cycles each access was blocked
system.cpu0.dcache.fast_writes                      0                       # number of fast writes performed
system.cpu0.dcache.cache_copies                     0                       # number of cache copies performed
system.cpu0.dcache.writebacks::writebacks           10                       # number of writebacks
system.cpu0.dcache.writebacks::total               10                       # number of writebacks
system.cpu0.dcache.ReadReq_mshr_hits::cpu0.data           71                       # number of ReadReq MSHR hits
system.cpu0.dcache.ReadReq_mshr_hits::total           71                       # number of ReadReq MSHR hits
system.cpu0.dcache.WriteReq_mshr_hits::cpu0.data         2186                       # number of WriteReq MSHR hits
system.cpu0.dcache.WriteReq_mshr_hits::total         2186                       # number of WriteReq MSHR hits
system.cpu0.dcache.LoadLockedReq_mshr_hits::cpu0.data            3                       # number of LoadLockedReq MSHR hits
system.cpu0.dcache.LoadLockedReq_mshr_hits::total            3                       # number of LoadLockedReq MSHR hits
system.cpu0.dcache.demand_mshr_hits::cpu0.data         2257                       # number of demand (read+write) MSHR hits
system.cpu0.dcache.demand_mshr_hits::total         2257                       # number of demand (read+write) MSHR hits
system.cpu0.dcache.overall_mshr_hits::cpu0.data         2257                       # number of overall MSHR hits
system.cpu0.dcache.overall_mshr_hits::total         2257                       # number of overall MSHR hits
system.cpu0.dcache.ReadReq_mshr_misses::cpu0.data          136                       # number of ReadReq MSHR misses
system.cpu0.dcache.ReadReq_mshr_misses::total          136                       # number of ReadReq MSHR misses
system.cpu0.dcache.WriteReq_mshr_misses::cpu0.data          182                       # number of WriteReq MSHR misses
system.cpu0.dcache.WriteReq_mshr_misses::total          182                       # number of WriteReq MSHR misses
system.cpu0.dcache.StoreCondReq_mshr_misses::cpu0.data            1                       # number of StoreCondReq MSHR misses
system.cpu0.dcache.StoreCondReq_mshr_misses::total            1                       # number of StoreCondReq MSHR misses
system.cpu0.dcache.demand_mshr_misses::cpu0.data          318                       # number of demand (read+write) MSHR misses
system.cpu0.dcache.demand_mshr_misses::total          318                       # number of demand (read+write) MSHR misses
system.cpu0.dcache.overall_mshr_misses::cpu0.data          318                       # number of overall MSHR misses
system.cpu0.dcache.overall_mshr_misses::total          318                       # number of overall MSHR misses
system.cpu0.dcache.ReadReq_mshr_miss_latency::cpu0.data      6054505                       # number of ReadReq MSHR miss cycles
system.cpu0.dcache.ReadReq_mshr_miss_latency::total      6054505                       # number of ReadReq MSHR miss cycles
system.cpu0.dcache.WriteReq_mshr_miss_latency::cpu0.data      9912500                       # number of WriteReq MSHR miss cycles
system.cpu0.dcache.WriteReq_mshr_miss_latency::total      9912500                       # number of WriteReq MSHR miss cycles
system.cpu0.dcache.StoreCondReq_mshr_miss_latency::cpu0.data         4500                       # number of StoreCondReq MSHR miss cycles
system.cpu0.dcache.StoreCondReq_mshr_miss_latency::total         4500                       # number of StoreCondReq MSHR miss cycles
system.cpu0.dcache.demand_mshr_miss_latency::cpu0.data     15967005                       # number of demand (read+write) MSHR miss cycles
system.cpu0.dcache.demand_mshr_miss_latency::total     15967005                       # number of demand (read+write) MSHR miss cycles
system.cpu0.dcache.overall_mshr_miss_latency::cpu0.data     15967005                       # number of overall MSHR miss cycles
system.cpu0.dcache.overall_mshr_miss_latency::total     15967005                       # number of overall MSHR miss cycles
system.cpu0.dcache.ReadReq_mshr_miss_rate::cpu0.data     0.000005                       # mshr miss rate for ReadReq accesses
system.cpu0.dcache.ReadReq_mshr_miss_rate::total     0.000005                       # mshr miss rate for ReadReq accesses
system.cpu0.dcache.WriteReq_mshr_miss_rate::cpu0.data     0.000007                       # mshr miss rate for WriteReq accesses
system.cpu0.dcache.WriteReq_mshr_miss_rate::total     0.000007                       # mshr miss rate for WriteReq accesses
system.cpu0.dcache.StoreCondReq_mshr_miss_rate::cpu0.data     0.040000                       # mshr miss rate for StoreCondReq accesses
system.cpu0.dcache.StoreCondReq_mshr_miss_rate::total     0.040000                       # mshr miss rate for StoreCondReq accesses
system.cpu0.dcache.demand_mshr_miss_rate::cpu0.data     0.000006                       # mshr miss rate for demand accesses
system.cpu0.dcache.demand_mshr_miss_rate::total     0.000006                       # mshr miss rate for demand accesses
system.cpu0.dcache.overall_mshr_miss_rate::cpu0.data     0.000006                       # mshr miss rate for overall accesses
system.cpu0.dcache.overall_mshr_miss_rate::total     0.000006                       # mshr miss rate for overall accesses
system.cpu0.dcache.ReadReq_avg_mshr_miss_latency::cpu0.data 44518.419118                       # average ReadReq mshr miss latency
system.cpu0.dcache.ReadReq_avg_mshr_miss_latency::total 44518.419118                       # average ReadReq mshr miss latency
system.cpu0.dcache.WriteReq_avg_mshr_miss_latency::cpu0.data 54464.285714                       # average WriteReq mshr miss latency
system.cpu0.dcache.WriteReq_avg_mshr_miss_latency::total 54464.285714                       # average WriteReq mshr miss latency
system.cpu0.dcache.StoreCondReq_avg_mshr_miss_latency::cpu0.data         4500                       # average StoreCondReq mshr miss latency
system.cpu0.dcache.StoreCondReq_avg_mshr_miss_latency::total         4500                       # average StoreCondReq mshr miss latency
system.cpu0.dcache.demand_avg_mshr_miss_latency::cpu0.data 50210.707547                       # average overall mshr miss latency
system.cpu0.dcache.demand_avg_mshr_miss_latency::total 50210.707547                       # average overall mshr miss latency
system.cpu0.dcache.overall_avg_mshr_miss_latency::cpu0.data 50210.707547                       # average overall mshr miss latency
system.cpu0.dcache.overall_avg_mshr_miss_latency::total 50210.707547                       # average overall mshr miss latency
system.cpu0.dcache.no_allocate_misses               0                       # Number of misses that were no-allocate
system.cpu0.icache.tags.replacements               64                       # number of replacements
system.cpu0.icache.tags.tagsinuse          286.939272                       # Cycle average of tags in use
system.cpu0.icache.tags.total_refs               1481                       # Total number of references to valid blocks.
system.cpu0.icache.tags.sampled_refs              381                       # Sample count of references to valid blocks.
system.cpu0.icache.tags.avg_refs             3.887139                       # Average number of references to valid blocks.
system.cpu0.icache.tags.warmup_cycle                0                       # Cycle when the warmup percentage was hit.
system.cpu0.icache.tags.occ_blocks::cpu0.inst   286.939272                       # Average occupied blocks per requestor
system.cpu0.icache.tags.occ_percent::cpu0.inst     0.560428                       # Average percentage of cache occupancy
system.cpu0.icache.tags.occ_percent::total     0.560428                       # Average percentage of cache occupancy
system.cpu0.icache.tags.occ_task_id_blocks::1024          317                       # Occupied blocks per task id
system.cpu0.icache.tags.age_task_id_blocks_1024::0           42                       # Occupied blocks per task id
system.cpu0.icache.tags.age_task_id_blocks_1024::4          275                       # Occupied blocks per task id
system.cpu0.icache.tags.occ_task_id_percent::1024     0.619141                       # Percentage of cache occupancy per task id
system.cpu0.icache.tags.tag_accesses             4227                       # Number of tag accesses
system.cpu0.icache.tags.data_accesses            4227                       # Number of data accesses
system.cpu0.icache.ReadReq_hits::cpu0.inst         1481                       # number of ReadReq hits
system.cpu0.icache.ReadReq_hits::total           1481                       # number of ReadReq hits
system.cpu0.icache.demand_hits::cpu0.inst         1481                       # number of demand (read+write) hits
system.cpu0.icache.demand_hits::total            1481                       # number of demand (read+write) hits
system.cpu0.icache.overall_hits::cpu0.inst         1481                       # number of overall hits
system.cpu0.icache.overall_hits::total           1481                       # number of overall hits
system.cpu0.icache.ReadReq_misses::cpu0.inst          442                       # number of ReadReq misses
system.cpu0.icache.ReadReq_misses::total          442                       # number of ReadReq misses
system.cpu0.icache.demand_misses::cpu0.inst          442                       # number of demand (read+write) misses
system.cpu0.icache.demand_misses::total           442                       # number of demand (read+write) misses
system.cpu0.icache.overall_misses::cpu0.inst          442                       # number of overall misses
system.cpu0.icache.overall_misses::total          442                       # number of overall misses
system.cpu0.icache.ReadReq_miss_latency::cpu0.inst     23127497                       # number of ReadReq miss cycles
system.cpu0.icache.ReadReq_miss_latency::total     23127497                       # number of ReadReq miss cycles
system.cpu0.icache.demand_miss_latency::cpu0.inst     23127497                       # number of demand (read+write) miss cycles
system.cpu0.icache.demand_miss_latency::total     23127497                       # number of demand (read+write) miss cycles
system.cpu0.icache.overall_miss_latency::cpu0.inst     23127497                       # number of overall miss cycles
system.cpu0.icache.overall_miss_latency::total     23127497                       # number of overall miss cycles
system.cpu0.icache.ReadReq_accesses::cpu0.inst         1923                       # number of ReadReq accesses(hits+misses)
system.cpu0.icache.ReadReq_accesses::total         1923                       # number of ReadReq accesses(hits+misses)
system.cpu0.icache.demand_accesses::cpu0.inst         1923                       # number of demand (read+write) accesses
system.cpu0.icache.demand_accesses::total         1923                       # number of demand (read+write) accesses
system.cpu0.icache.overall_accesses::cpu0.inst         1923                       # number of overall (read+write) accesses
system.cpu0.icache.overall_accesses::total         1923                       # number of overall (read+write) accesses
system.cpu0.icache.ReadReq_miss_rate::cpu0.inst     0.229849                       # miss rate for ReadReq accesses
system.cpu0.icache.ReadReq_miss_rate::total     0.229849                       # miss rate for ReadReq accesses
system.cpu0.icache.demand_miss_rate::cpu0.inst     0.229849                       # miss rate for demand accesses
system.cpu0.icache.demand_miss_rate::total     0.229849                       # miss rate for demand accesses
system.cpu0.icache.overall_miss_rate::cpu0.inst     0.229849                       # miss rate for overall accesses
system.cpu0.icache.overall_miss_rate::total     0.229849                       # miss rate for overall accesses
system.cpu0.icache.ReadReq_avg_miss_latency::cpu0.inst 52324.653846                       # average ReadReq miss latency
system.cpu0.icache.ReadReq_avg_miss_latency::total 52324.653846                       # average ReadReq miss latency
system.cpu0.icache.demand_avg_miss_latency::cpu0.inst 52324.653846                       # average overall miss latency
system.cpu0.icache.demand_avg_miss_latency::total 52324.653846                       # average overall miss latency
system.cpu0.icache.overall_avg_miss_latency::cpu0.inst 52324.653846                       # average overall miss latency
system.cpu0.icache.overall_avg_miss_latency::total 52324.653846                       # average overall miss latency
system.cpu0.icache.blocked_cycles::no_mshrs           11                       # number of cycles access was blocked
system.cpu0.icache.blocked_cycles::no_targets            0                       # number of cycles access was blocked
system.cpu0.icache.blocked::no_mshrs                1                       # number of cycles access was blocked
system.cpu0.icache.blocked::no_targets              0                       # number of cycles access was blocked
system.cpu0.icache.avg_blocked_cycles::no_mshrs           11                       # average number of cycles each access was blocked
system.cpu0.icache.avg_blocked_cycles::no_targets          nan                       # average number of cycles each access was blocked
system.cpu0.icache.fast_writes                      0                       # number of fast writes performed
system.cpu0.icache.cache_copies                     0                       # number of cache copies performed
system.cpu0.icache.ReadReq_mshr_hits::cpu0.inst           61                       # number of ReadReq MSHR hits
system.cpu0.icache.ReadReq_mshr_hits::total           61                       # number of ReadReq MSHR hits
system.cpu0.icache.demand_mshr_hits::cpu0.inst           61                       # number of demand (read+write) MSHR hits
system.cpu0.icache.demand_mshr_hits::total           61                       # number of demand (read+write) MSHR hits
system.cpu0.icache.overall_mshr_hits::cpu0.inst           61                       # number of overall MSHR hits
system.cpu0.icache.overall_mshr_hits::total           61                       # number of overall MSHR hits
system.cpu0.icache.ReadReq_mshr_misses::cpu0.inst          381                       # number of ReadReq MSHR misses
system.cpu0.icache.ReadReq_mshr_misses::total          381                       # number of ReadReq MSHR misses
system.cpu0.icache.demand_mshr_misses::cpu0.inst          381                       # number of demand (read+write) MSHR misses
[...]
system.l2.ReadReq_mshr_miss_latency::total     41775500                       # number of ReadReq MSHR miss cycles
system.l2.UpgradeReq_mshr_miss_latency::cpu1.data   1876120354                       # number of UpgradeReq MSHR miss cycles
system.l2.UpgradeReq_mshr_miss_latency::cpu2.data   2174206268                       # number of UpgradeReq MSHR miss cycles
system.l2.UpgradeReq_mshr_miss_latency::total   4050326622                       # number of UpgradeReq MSHR miss cycles
system.l2.SCUpgradeReq_mshr_miss_latency::cpu1.data   1150582328                       # number of SCUpgradeReq MSHR miss cycles
system.l2.SCUpgradeReq_mshr_miss_latency::cpu2.data   1357446604                       # number of SCUpgradeReq MSHR miss cycles
system.l2.SCUpgradeReq_mshr_miss_latency::total   2508028932                       # number of SCUpgradeReq MSHR miss cycles
system.l2.ReadExReq_mshr_miss_latency::cpu0.data      7302500                       # number of ReadExReq MSHR miss cycles
system.l2.ReadExReq_mshr_miss_latency::cpu1.data     56801500                       # number of ReadExReq MSHR miss cycles
system.l2.ReadExReq_mshr_miss_latency::cpu2.data     57236500                       # number of ReadExReq MSHR miss cycles
system.l2.ReadExReq_mshr_miss_latency::total    121340500                       # number of ReadExReq MSHR miss cycles
system.l2.demand_mshr_miss_latency::cpu0.inst     14399500                       # number of demand (read+write) MSHR miss cycles
system.l2.demand_mshr_miss_latency::cpu0.data     11314000                       # number of demand (read+write) MSHR miss cycles
system.l2.demand_mshr_miss_latency::cpu1.inst      7292500                       # number of demand (read+write) MSHR miss cycles
system.l2.demand_mshr_miss_latency::cpu1.data     62705500                       # number of demand (read+write) MSHR miss cycles
system.l2.demand_mshr_miss_latency::cpu2.inst      4556000                       # number of demand (read+write) MSHR miss cycles
system.l2.demand_mshr_miss_latency::cpu2.data     62848500                       # number of demand (read+write) MSHR miss cycles
system.l2.demand_mshr_miss_latency::total    163116000                       # number of demand (read+write) MSHR miss cycles
system.l2.overall_mshr_miss_latency::cpu0.inst     14399500                       # number of overall MSHR miss cycles
system.l2.overall_mshr_miss_latency::cpu0.data     11314000                       # number of overall MSHR miss cycles
system.l2.overall_mshr_miss_latency::cpu1.inst      7292500                       # number of overall MSHR miss cycles
system.l2.overall_mshr_miss_latency::cpu1.data     62705500                       # number of overall MSHR miss cycles
system.l2.overall_mshr_miss_latency::cpu2.inst      4556000                       # number of overall MSHR miss cycles
system.l2.overall_mshr_miss_latency::cpu2.data     62848500                       # number of overall MSHR miss cycles
system.l2.overall_mshr_miss_latency::total    163116000                       # number of overall MSHR miss cycles
system.l2.ReadReq_mshr_miss_rate::cpu0.inst     0.921260                       # mshr miss rate for ReadReq accesses
system.l2.ReadReq_mshr_miss_rate::cpu0.data     0.730769                       # mshr miss rate for ReadReq accesses
system.l2.ReadReq_mshr_miss_rate::cpu1.inst     0.082261                       # mshr miss rate for ReadReq accesses
system.l2.ReadReq_mshr_miss_rate::cpu1.data     0.000811                       # mshr miss rate for ReadReq accesses
system.l2.ReadReq_mshr_miss_rate::cpu2.inst     0.111221                       # mshr miss rate for ReadReq accesses
system.l2.ReadReq_mshr_miss_rate::cpu2.data     0.000748                       # mshr miss rate for ReadReq accesses
system.l2.ReadReq_mshr_miss_rate::total      0.002779                       # mshr miss rate for ReadReq accesses
system.l2.UpgradeReq_mshr_miss_rate::cpu1.data     0.999395                       # mshr miss rate for UpgradeReq accesses
system.l2.UpgradeReq_mshr_miss_rate::cpu2.data     0.999310                       # mshr miss rate for UpgradeReq accesses
system.l2.UpgradeReq_mshr_miss_rate::total     0.999340                       # mshr miss rate for UpgradeReq accesses
system.l2.SCUpgradeReq_mshr_miss_rate::cpu1.data     0.999930                       # mshr miss rate for SCUpgradeReq accesses
system.l2.SCUpgradeReq_mshr_miss_rate::cpu2.data     0.999970                       # mshr miss rate for SCUpgradeReq accesses
system.l2.SCUpgradeReq_mshr_miss_rate::total     0.999952                       # mshr miss rate for SCUpgradeReq accesses
system.l2.ReadExReq_mshr_miss_rate::cpu0.data            1                       # mshr miss rate for ReadExReq accesses
system.l2.ReadExReq_mshr_miss_rate::cpu1.data     0.962225                       # mshr miss rate for ReadExReq accesses
system.l2.ReadExReq_mshr_miss_rate::cpu2.data     0.995769                       # mshr miss rate for ReadExReq accesses
system.l2.ReadExReq_mshr_miss_rate::total     0.980020                       # mshr miss rate for ReadExReq accesses
system.l2.demand_mshr_miss_rate::cpu0.inst     0.921260                       # mshr miss rate for demand accesses
system.l2.demand_mshr_miss_rate::cpu0.data     0.886731                       # mshr miss rate for demand accesses
system.l2.demand_mshr_miss_rate::cpu1.inst     0.082261                       # mshr miss rate for demand accesses
system.l2.demand_mshr_miss_rate::cpu1.data     0.008576                       # mshr miss rate for demand accesses
system.l2.demand_mshr_miss_rate::cpu2.inst     0.111221                       # mshr miss rate for demand accesses
system.l2.demand_mshr_miss_rate::cpu2.data     0.008338                       # mshr miss rate for demand accesses
system.l2.demand_mshr_miss_rate::total       0.010842                       # mshr miss rate for demand accesses
system.l2.overall_mshr_miss_rate::cpu0.inst     0.921260                       # mshr miss rate for overall accesses
system.l2.overall_mshr_miss_rate::cpu0.data     0.886731                       # mshr miss rate for overall accesses
system.l2.overall_mshr_miss_rate::cpu1.inst     0.082261                       # mshr miss rate for overall accesses
system.l2.overall_mshr_miss_rate::cpu1.data     0.008576                       # mshr miss rate for overall accesses
system.l2.overall_mshr_miss_rate::cpu2.inst     0.111221                       # mshr miss rate for overall accesses
system.l2.overall_mshr_miss_rate::cpu2.data     0.008338                       # mshr miss rate for overall accesses
system.l2.overall_mshr_miss_rate::total      0.010842                       # mshr miss rate for overall accesses
system.l2.ReadReq_avg_mshr_miss_latency::cpu0.inst 41024.216524                       # average ReadReq mshr miss latency
system.l2.ReadReq_avg_mshr_miss_latency::cpu0.data 42226.315789                       # average ReadReq mshr miss latency
system.l2.ReadReq_avg_mshr_miss_latency::cpu1.inst 40740.223464                       # average ReadReq mshr miss latency
system.l2.ReadReq_avg_mshr_miss_latency::cpu1.data 40717.241379                       # average ReadReq mshr miss latency
system.l2.ReadReq_avg_mshr_miss_latency::cpu2.inst 40678.571429                       # average ReadReq mshr miss latency
system.l2.ReadReq_avg_mshr_miss_latency::cpu2.data 40666.666667                       # average ReadReq mshr miss latency
system.l2.ReadReq_avg_mshr_miss_latency::total 40956.372549                       # average ReadReq mshr miss latency
system.l2.UpgradeReq_avg_mshr_miss_latency::cpu1.data 40539.345146                       # average UpgradeReq mshr miss latency
system.l2.UpgradeReq_avg_mshr_miss_latency::cpu2.data 40567.334042                       # average UpgradeReq mshr miss latency
system.l2.UpgradeReq_avg_mshr_miss_latency::total 40554.364720                       # average UpgradeReq mshr miss latency
system.l2.SCUpgradeReq_avg_mshr_miss_latency::cpu1.data 40520.596161                       # average SCUpgradeReq mshr miss latency
system.l2.SCUpgradeReq_avg_mshr_miss_latency::cpu2.data 40520.794149                       # average SCUpgradeReq mshr miss latency
system.l2.SCUpgradeReq_avg_mshr_miss_latency::total 40520.703320                       # average SCUpgradeReq mshr miss latency
system.l2.ReadExReq_avg_mshr_miss_latency::cpu0.data 40796.089385                       # average ReadExReq mshr miss latency
system.l2.ReadExReq_avg_mshr_miss_latency::cpu1.data 40543.540328                       # average ReadExReq mshr miss latency
system.l2.ReadExReq_avg_mshr_miss_latency::cpu2.data 40535.764873                       # average ReadExReq mshr miss latency
system.l2.ReadExReq_avg_mshr_miss_latency::total 40554.979947                       # average ReadExReq mshr miss latency
system.l2.demand_avg_mshr_miss_latency::cpu0.inst 41024.216524                       # average overall mshr miss latency
system.l2.demand_avg_mshr_miss_latency::cpu0.data 41291.970803                       # average overall mshr miss latency
system.l2.demand_avg_mshr_miss_latency::cpu1.inst 40740.223464                       # average overall mshr miss latency
system.l2.demand_avg_mshr_miss_latency::cpu1.data 40559.831824                       # average overall mshr miss latency
system.l2.demand_avg_mshr_miss_latency::cpu2.inst 40678.571429                       # average overall mshr miss latency
system.l2.demand_avg_mshr_miss_latency::cpu2.data 40547.419355                       # average overall mshr miss latency
system.l2.demand_avg_mshr_miss_latency::total 40657.028913                       # average overall mshr miss latency
system.l2.overall_avg_mshr_miss_latency::cpu0.inst 41024.216524                       # average overall mshr miss latency
system.l2.overall_avg_mshr_miss_latency::cpu0.data 41291.970803                       # average overall mshr miss latency
system.l2.overall_avg_mshr_miss_latency::cpu1.inst 40740.223464                       # average overall mshr miss latency
system.l2.overall_avg_mshr_miss_latency::cpu1.data 40559.831824                       # average overall mshr miss latency
system.l2.overall_avg_mshr_miss_latency::cpu2.inst 40678.571429                       # average overall mshr miss latency
system.l2.overall_avg_mshr_miss_latency::cpu2.data 40547.419355                       # average overall mshr miss latency
system.l2.overall_avg_mshr_miss_latency::total 40657.028913                       # average overall mshr miss latency
system.l2.no_allocate_misses                        0                       # Number of misses that were no-allocate
system.membus.trans_dist::ReadReq                1020                       # Transaction distribution
system.membus.trans_dist::ReadResp               1020                       # Transaction distribution
system.membus.trans_dist::UpgradeReq           347150                       # Transaction distribution
system.membus.trans_dist::SCUpgradeReq         306984                       # Transaction distribution
system.membus.trans_dist::UpgradeResp          161769                       # Transaction distribution
system.membus.trans_dist::ReadExReq              2993                       # Transaction distribution
system.membus.trans_dist::ReadExResp             2992                       # Transaction distribution
system.membus.pkt_count_system.l2.mem_side::system.physmem.port       823928                       # Packet count per connected master and slave (bytes)
system.membus.pkt_count::total                 823928                       # Packet count per connected master and slave (bytes)
system.membus.pkt_size_system.l2.mem_side::system.physmem.port       256768                       # Cumulative packet size per connected master and slave (bytes)
system.membus.pkt_size::total                  256768                       # Cumulative packet size per connected master and slave (bytes)
system.membus.snoops                           492366                       # Total snoops (count)
system.membus.snoop_fanout::samples            658300                       # Request fanout histogram
system.membus.snoop_fanout::mean                    0                       # Request fanout histogram
system.membus.snoop_fanout::stdev                   0                       # Request fanout histogram
system.membus.snoop_fanout::underflows              0      0.00%      0.00% # Request fanout histogram
system.membus.snoop_fanout::0                  658300    100.00%    100.00% # Request fanout histogram
system.membus.snoop_fanout::1                       0      0.00%    100.00% # Request fanout histogram
system.membus.snoop_fanout::overflows               0      0.00%    100.00% # Request fanout histogram
system.membus.snoop_fanout::min_value               0                       # Request fanout histogram
system.membus.snoop_fanout::max_value               0                       # Request fanout histogram
system.membus.snoop_fanout::total              658300                       # Request fanout histogram
system.membus.reqLayer0.occupancy           245444891                       # Layer occupancy (ticks)
system.membus.reqLayer0.utilization               0.5                       # Layer utilization (%)
system.membus.respLayer1.occupancy          261202723                       # Layer occupancy (ticks)
system.membus.respLayer1.utilization              0.5                       # Layer utilization (%)
system.tol2bus.trans_dist::ReadReq            1081143                       # Transaction distribution
system.tol2bus.trans_dist::ReadResp           1081143                       # Transaction distribution
system.tol2bus.trans_dist::Writeback           326069                       # Transaction distribution
system.tol2bus.trans_dist::UpgradeReq          347216                       # Transaction distribution
system.tol2bus.trans_dist::SCUpgradeReq        306987                       # Transaction distribution
system.tol2bus.trans_dist::UpgradeResp         654203                       # Transaction distribution
system.tol2bus.trans_dist::SCUpgradeFailReq          701                       # Transaction distribution
system.tol2bus.trans_dist::UpgradeFailResp          701                       # Transaction distribution
system.tol2bus.trans_dist::ReadExReq             3281                       # Transaction distribution
system.tol2bus.trans_dist::ReadExResp            3281                       # Transaction distribution
system.tol2bus.pkt_count_system.cpu0.icache.mem_side::system.l2.cpu_side          762                       # Packet count per connected master and slave (bytes)
system.tol2bus.pkt_count_system.cpu0.dcache.mem_side::system.l2.cpu_side          639                       # Packet count per connected master and slave (bytes)
system.tol2bus.pkt_count_system.cpu1.icache.mem_side::system.l2.cpu_side         4352                       # Packet count per connected master and slave (bytes)
system.tol2bus.pkt_count_system.cpu1.dcache.mem_side::system.l2.cpu_side      1280362                       # Packet count per connected master and slave (bytes)
system.tol2bus.pkt_count_system.cpu2.icache.mem_side::system.l2.cpu_side         2014                       # Packet count per connected master and slave (bytes)
system.tol2bus.pkt_count_system.cpu2.dcache.mem_side::system.l2.cpu_side      1309147                       # Packet count per connected master and slave (bytes)
system.tol2bus.pkt_count::total               2597276                       # Packet count per connected master and slave (bytes)
system.tol2bus.pkt_size_system.cpu0.icache.mem_side::system.l2.cpu_side        24384                       # Cumulative packet size per connected master and slave (bytes)
system.tol2bus.pkt_size_system.cpu0.dcache.mem_side::system.l2.cpu_side        20416                       # Cumulative packet size per connected master and slave (bytes)
system.tol2bus.pkt_size_system.cpu1.icache.mem_side::system.l2.cpu_side       139264                       # Cumulative packet size per connected master and slave (bytes)
system.tol2bus.pkt_size_system.cpu1.dcache.mem_side::system.l2.cpu_side     21787904                       # Cumulative packet size per connected master and slave (bytes)
system.tol2bus.pkt_size_system.cpu2.icache.mem_side::system.l2.cpu_side        64448                       # Cumulative packet size per connected master and slave (bytes)
system.tol2bus.pkt_size_system.cpu2.dcache.mem_side::system.l2.cpu_side     22514624                       # Cumulative packet size per connected master and slave (bytes)
system.tol2bus.pkt_size::total               44551040                       # Cumulative packet size per connected master and slave (bytes)
system.tol2bus.snoops                         1207449                       # Total snoops (count)
system.tol2bus.snoop_fanout::samples          2065397                       # Request fanout histogram
system.tol2bus.snoop_fanout::mean                   5                       # Request fanout histogram
system.tol2bus.snoop_fanout::stdev                  0                       # Request fanout histogram
system.tol2bus.snoop_fanout::underflows             0      0.00%      0.00% # Request fanout histogram
system.tol2bus.snoop_fanout::0                      0      0.00%      0.00% # Request fanout histogram
system.tol2bus.snoop_fanout::1                      0      0.00%      0.00% # Request fanout histogram
system.tol2bus.snoop_fanout::2                      0      0.00%      0.00% # Request fanout histogram
system.tol2bus.snoop_fanout::3                      0      0.00%      0.00% # Request fanout histogram
system.tol2bus.snoop_fanout::4                      0      0.00%      0.00% # Request fanout histogram
system.tol2bus.snoop_fanout::5                2065397    100.00%    100.00% # Request fanout histogram
system.tol2bus.snoop_fanout::6                      0      0.00%    100.00% # Request fanout histogram
system.tol2bus.snoop_fanout::overflows              0      0.00%    100.00% # Request fanout histogram
system.tol2bus.snoop_fanout::min_value              5                       # Request fanout histogram
system.tol2bus.snoop_fanout::max_value              5                       # Request fanout histogram
system.tol2bus.snoop_fanout::total            2065397                       # Request fanout histogram
system.tol2bus.reqLayer0.occupancy         1363381254                       # Layer occupancy (ticks)
system.tol2bus.reqLayer0.utilization              2.7                       # Layer utilization (%)
system.tol2bus.respLayer0.occupancy            572997                       # Layer occupancy (ticks)
system.tol2bus.respLayer0.utilization             0.0                       # Layer utilization (%)
system.tol2bus.respLayer1.occupancy            477495                       # Layer occupancy (ticks)
system.tol2bus.respLayer1.utilization             0.0                       # Layer utilization (%)
system.tol2bus.respLayer4.occupancy           3279469                       # Layer occupancy (ticks)
system.tol2bus.respLayer4.utilization             0.0                       # Layer utilization (%)
system.tol2bus.respLayer5.occupancy         978201500                       # Layer occupancy (ticks)
system.tol2bus.respLayer5.utilization             1.9                       # Layer utilization (%)
system.tol2bus.respLayer8.occupancy           1540440                       # Layer occupancy (ticks)
system.tol2bus.respLayer8.utilization             0.0                       # Layer utilization (%)
system.tol2bus.respLayer9.occupancy         974128291                       # Layer occupancy (ticks)
system.tol2bus.respLayer9.utilization             1.9                       # Layer utilization (%)

---------- End Simulation Statistics   ----------
