
---------- Begin Simulation Statistics ----------
sim_seconds                                  0.018020                       # Number of seconds simulated
sim_ticks                                 18019757000                       # Number of ticks simulated
final_tick                                18019757000                       # Number of ticks from beginning of simulation (restored from checkpoints and never reset)
sim_freq                                 1000000000000                       # Frequency of simulated ticks
host_inst_rate                                 184598                       # Simulator instruction rate (inst/s)
host_op_rate                                   190955                       # Simulator op (including micro ops) rate (op/s)
host_tick_rate                               47973293                       # Simulator tick rate (ticks/s)
host_mem_usage                                 685052                       # Number of bytes of host memory used
host_seconds                                   375.62                       # Real time elapsed on the host
sim_insts                                    69338960                       # Number of instructions simulated
sim_ops                                      71726507                       # Number of ops (including micro ops) simulated
system.voltage_domain.voltage                       1                       # Voltage in Volts
system.clk_domain.clock                          1000                       # Clock period in ticks
system.physmem.bytes_read::cpu0.inst            22400                       # Number of bytes read from this memory
system.physmem.bytes_read::cpu0.data            17664                       # Number of bytes read from this memory
system.physmem.bytes_read::cpu1.inst            11648                       # Number of bytes read from this memory
system.physmem.bytes_read::cpu1.data            24192                       # Number of bytes read from this memory
system.physmem.bytes_read::cpu2.inst             6720                       # Number of bytes read from this memory
system.physmem.bytes_read::cpu2.data            33152                       # Number of bytes read from this memory
system.physmem.bytes_read::total               115776                       # Number of bytes read from this memory
system.physmem.bytes_inst_read::cpu0.inst        22400                       # Number of instructions bytes read from this memory
system.physmem.bytes_inst_read::cpu1.inst        11648                       # Number of instructions bytes read from this memory
system.physmem.bytes_inst_read::cpu2.inst         6720                       # Number of instructions bytes read from this memory
system.physmem.bytes_inst_read::total           40768                       # Number of instructions bytes read from this memory
system.physmem.num_reads::cpu0.inst               350                       # Number of read requests responded to by this memory
system.physmem.num_reads::cpu0.data               276                       # Number of read requests responded to by this memory
system.physmem.num_reads::cpu1.inst               182                       # Number of read requests responded to by this memory
system.physmem.num_reads::cpu1.data               378                       # Number of read requests responded to by this memory
system.physmem.num_reads::cpu2.inst               105                       # Number of read requests responded to by this memory
system.physmem.num_reads::cpu2.data               518                       # Number of read requests responded to by this memory
system.physmem.num_reads::total                  1809                       # Number of read requests responded to by this memory
system.physmem.bw_read::cpu0.inst             1243080                       # Total read bandwidth from this memory (bytes/s)
system.physmem.bw_read::cpu0.data              980257                       # Total read bandwidth from this memory (bytes/s)
system.physmem.bw_read::cpu1.inst              646402                       # Total read bandwidth from this memory (bytes/s)
system.physmem.bw_read::cpu1.data             1342526                       # Total read bandwidth from this memory (bytes/s)
system.physmem.bw_read::cpu2.inst              372924                       # Total read bandwidth from this memory (bytes/s)
system.physmem.bw_read::cpu2.data             1839758                       # Total read bandwidth from this memory (bytes/s)
system.physmem.bw_read::total                 6424948                       # Total read bandwidth from this memory (bytes/s)
system.physmem.bw_inst_read::cpu0.inst        1243080                       # Instruction read bandwidth from this memory (bytes/s)
system.physmem.bw_inst_read::cpu1.inst         646402                       # Instruction read bandwidth from this memory (bytes/s)
system.physmem.bw_inst_read::cpu2.inst         372924                       # Instruction read bandwidth from this memory (bytes/s)
system.physmem.bw_inst_read::total            2262406                       # Instruction read bandwidth from this memory (bytes/s)
system.physmem.bw_total::cpu0.inst            1243080                       # Total bandwidth to/from this memory (bytes/s)
system.physmem.bw_total::cpu0.data             980257                       # Total bandwidth to/from this memory (bytes/s)
system.physmem.bw_total::cpu1.inst             646402                       # Total bandwidth to/from this memory (bytes/s)
system.physmem.bw_total::cpu1.data            1342526                       # Total bandwidth to/from this memory (bytes/s)
system.physmem.bw_total::cpu2.inst             372924                       # Total bandwidth to/from this memory (bytes/s)
system.physmem.bw_total::cpu2.data            1839758                       # Total bandwidth to/from this memory (bytes/s)
system.physmem.bw_total::total                6424948                       # Total bandwidth to/from this memory (bytes/s)
system.cpu0.branchPred.lookups                8998910                       # Number of BP lookups
system.cpu0.branchPred.condPredicted          8998036                       # Number of conditional branches predicted
system.cpu0.branchPred.condIncorrect              574                       # Number of conditional branches incorrect
system.cpu0.branchPred.BTBLookups             8997293                       # Number of BTB lookups
system.cpu0.branchPred.BTBHits                8996906                       # Number of BTB hits
system.cpu0.branchPred.BTBCorrect                   0                       # Number of correct BTB predictions (this stat may not work properly.
system.cpu0.branchPred.BTBHitPct            99.995699                       # BTB Hit Percentage
system.cpu0.branchPred.usedRAS                    270                       # Number of times the RAS was used to get a target.
system.cpu0.branchPred.RASInCorrect                55                       # Number of incorrect RAS predictions.
system.cpu0.dstage2_mmu.stage2_tlb.walker.walks            0                       # Table walker walks requested
system.cpu0.dstage2_mmu.stage2_tlb.walker.walkRequestOrigin_Requested::Data            0                       # Table walker requests started/completed, data/inst
system.cpu0.dstage2_mmu.stage2_tlb.walker.walkRequestOrigin_Requested::Inst            0                       # Table walker requests started/completed, data/inst
system.cpu0.dstage2_mmu.stage2_tlb.walker.walkRequestOrigin_Requested::total            0                       # Table walker requests started/completed, data/inst
system.cpu0.dstage2_mmu.stage2_tlb.walker.walkRequestOrigin_Completed::Data            0                       # Table walker requests started/completed, data/inst
system.cpu0.dstage2_mmu.stage2_tlb.walker.walkRequestOrigin_Completed::Inst            0                       # Table walker requests started/completed, data/inst
system.cpu0.dstage2_mmu.stage2_tlb.walker.walkRequestOrigin_Completed::total            0                       # Table walker requests started/completed, data/inst
system.cpu0.dstage2_mmu.stage2_tlb.walker.walkRequestOrigin::total            0                       # Table walker requests started/completed, data/inst
system.cpu0.dstage2_mmu.stage2_tlb.inst_hits            0                       # ITB inst hits
system.cpu0.dstage2_mmu.stage2_tlb.inst_misses            0                       # ITB inst misses
system.cpu0.dstage2_mmu.stage2_tlb.read_hits            0                       # DTB read hits
system.cpu0.dstage2_mmu.stage2_tlb.read_misses            0                       # DTB read misses
system.cpu0.dstage2_mmu.stage2_tlb.write_hits            0                       # DTB write hits
system.cpu0.dstage2_mmu.stage2_tlb.write_misses            0                       # DTB write misses
system.cpu0.dstage2_mmu.stage2_tlb.flush_tlb            0                       # Number of times complete TLB was flushed
system.cpu0.dstage2_mmu.stage2_tlb.flush_tlb_mva            0                       # Number of times TLB was flushed by MVA
system.cpu0.dstage2_mmu.stage2_tlb.flush_tlb_mva_asid            0                       # Number of times TLB was flushed by MVA & ASID
system.cpu0.dstage2_mmu.stage2_tlb.flush_tlb_asid            0                       # Number of times TLB was flushed by ASID
system.cpu0.dstage2_mmu.stage2_tlb.flush_entries            0                       # Number of entries that have been flushed from TLB
system.cpu0.dstage2_mmu.stage2_tlb.align_faults            0                       # Number of TLB faults due to alignment restrictions
system.cpu0.dstage2_mmu.stage2_tlb.prefetch_faults            0                       # Number of TLB faults due to prefetch
system.cpu0.dstage2_mmu.stage2_tlb.domain_faults            0                       # Number of TLB faults due to domain restrictions
system.cpu0.dstage2_mmu.stage2_tlb.perms_faults            0                       # Number of TLB faults due to permissions restrictions
system.cpu0.dstage2_mmu.stage2_tlb.read_accesses            0                       # DTB read accesses
system.cpu0.dstage2_mmu.stage2_tlb.write_accesses            0                       # DTB write accesses
system.cpu0.dstage2_mmu.stage2_tlb.inst_accesses            0                       # ITB inst accesses
system.cpu0.dstage2_mmu.stage2_tlb.hits             0                       # DTB hits
system.cpu0.dstage2_mmu.stage2_tlb.misses            0                       # DTB misses
system.cpu0.dstage2_mmu.stage2_tlb.accesses            0                       # DTB accesses
system.cpu0.dtb.walker.walks                        0                       # Table walker walks requested
system.cpu0.dtb.walker.walkRequestOrigin_Requested::Data            0                       # Table walker requests started/completed, data/inst
system.cpu0.dtb.walker.walkRequestOrigin_Requested::Inst            0                       # Table walker requests started/completed, data/inst
system.cpu0.dtb.walker.walkRequestOrigin_Requested::total            0                       # Table walker requests started/completed, data/inst
system.cpu0.dtb.walker.walkRequestOrigin_Completed::Data            0                       # Table walker requests started/completed, data/inst
system.cpu0.dtb.walker.walkRequestOrigin_Completed::Inst            0                       # Table walker requests started/completed, data/inst
system.cpu0.dtb.walker.walkRequestOrigin_Completed::total            0                       # Table walker requests started/completed, data/inst
system.cpu0.dtb.walker.walkRequestOrigin::total            0                       # Table walker requests started/completed, data/inst
system.cpu0.dtb.inst_hits                           0                       # ITB inst hits
system.cpu0.dtb.inst_misses                         0                       # ITB inst misses
system.cpu0.dtb.read_hits                           0                       # DTB read hits
system.cpu0.dtb.read_misses                         0                       # DTB read misses
system.cpu0.dtb.write_hits                          0                       # DTB write hits
system.cpu0.dtb.write_misses                        0                       # DTB write misses
system.cpu0.dtb.flush_tlb                           0                       # Number of times complete TLB was flushed
system.cpu0.dtb.flush_tlb_mva                       0                       # Number of times TLB was flushed by MVA
system.cpu0.dtb.flush_tlb_mva_asid                  0                       # Number of times TLB was flushed by MVA & ASID
system.cpu0.dtb.flush_tlb_asid                      0                       # Number of times TLB was flushed by ASID
system.cpu0.dtb.flush_entries                       0                       # Number of entries that have been flushed from TLB
system.cpu0.dtb.align_faults                        0                       # Number of TLB faults due to alignment restrictions
system.cpu0.dtb.prefetch_faults                     0                       # Number of TLB faults due to prefetch
system.cpu0.dtb.domain_faults                       0                       # Number of TLB faults due to domain restrictions
system.cpu0.dtb.perms_faults                        0                       # Number of TLB faults due to permissions restrictions
system.cpu0.dtb.read_accesses                       0                       # DTB read accesses
system.cpu0.dtb.write_accesses                      0                       # DTB write accesses
system.cpu0.dtb.inst_accesses                       0                       # ITB inst accesses
system.cpu0.dtb.hits                                0                       # DTB hits
system.cpu0.dtb.misses                              0                       # DTB misses
system.cpu0.dtb.accesses                            0                       # DTB accesses
system.cpu0.istage2_mmu.stage2_tlb.walker.walks            0                       # Table walker walks requested
system.cpu0.istage2_mmu.stage2_tlb.walker.walkRequestOrigin_Requested::Data            0                       # Table walker requests started/completed, data/inst
system.cpu0.istage2_mmu.stage2_tlb.walker.walkRequestOrigin_Requested::Inst            0                       # Table walker requests started/completed, data/inst
system.cpu0.istage2_mmu.stage2_tlb.walker.walkRequestOrigin_Requested::total            0                       # Table walker requests started/completed, data/inst
system.cpu0.istage2_mmu.stage2_tlb.walker.walkRequestOrigin_Completed::Data            0                       # Table walker requests started/completed, data/inst
system.cpu0.istage2_mmu.stage2_tlb.walker.walkRequestOrigin_Completed::Inst            0                       # Table walker requests started/completed, data/inst
system.cpu0.istage2_mmu.stage2_tlb.walker.walkRequestOrigin_Completed::total            0                       # Table walker requests started/completed, data/inst
system.cpu0.istage2_mmu.stage2_tlb.walker.walkRequestOrigin::total            0                       # Table walker requests started/completed, data/inst
system.cpu0.istage2_mmu.stage2_tlb.inst_hits            0                       # ITB inst hits
system.cpu0.istage2_mmu.stage2_tlb.inst_misses            0                       # ITB inst misses
system.cpu0.istage2_mmu.stage2_tlb.read_hits            0                       # DTB read hits
system.cpu0.istage2_mmu.stage2_tlb.read_misses            0                       # DTB read misses
system.cpu0.istage2_mmu.stage2_tlb.write_hits            0                       # DTB write hits
system.cpu0.istage2_mmu.stage2_tlb.write_misses            0                       # DTB write misses
system.cpu0.istage2_mmu.stage2_tlb.flush_tlb            0                       # Number of times complete TLB was flushed
system.cpu0.istage2_mmu.stage2_tlb.flush_tlb_mva            0                       # Number of times TLB was flushed by MVA
system.cpu0.istage2_mmu.stage2_tlb.flush_tlb_mva_asid            0                       # Number of times TLB was flushed by MVA & ASID
system.cpu0.istage2_mmu.stage2_tlb.flush_tlb_asid            0                       # Number of times TLB was flushed by ASID
system.cpu0.istage2_mmu.stage2_tlb.flush_entries            0                       # Number of entries that have been flushed from TLB
system.cpu0.istage2_mmu.stage2_tlb.align_faults            0                       # Number of TLB faults due to alignment restrictions
system.cpu0.istage2_mmu.stage2_tlb.prefetch_faults            0                       # Number of TLB faults due to prefetch
system.cpu0.istage2_mmu.stage2_tlb.domain_faults            0                       # Number of TLB faults due to domain restrictions
system.cpu0.istage2_mmu.stage2_tlb.perms_faults            0                       # Number of TLB faults due to permissions restrictions
system.cpu0.istage2_mmu.stage2_tlb.read_accesses            0                       # DTB read accesses
system.cpu0.istage2_mmu.stage2_tlb.write_accesses            0                       # DTB write accesses
system.cpu0.istage2_mmu.stage2_tlb.inst_accesses            0                       # ITB inst accesses
system.cpu0.istage2_mmu.stage2_tlb.hits             0                       # DTB hits
system.cpu0.istage2_mmu.stage2_tlb.misses            0                       # DTB misses
system.cpu0.istage2_mmu.stage2_tlb.accesses            0                       # DTB accesses
system.cpu0.itb.walker.walks                        0                       # Table walker walks requested
system.cpu0.itb.walker.walkRequestOrigin_Requested::Data            0                       # Table walker requests started/completed, data/inst
system.cpu0.itb.walker.walkRequestOrigin_Requested::Inst            0                       # Table walker requests started/completed, data/inst
system.cpu0.itb.walker.walkRequestOrigin_Requested::total            0                       # Table walker requests started/completed, data/inst
system.cpu0.itb.walker.walkRequestOrigin_Completed::Data            0                       # Table walker requests started/completed, data/inst
system.cpu0.itb.walker.walkRequestOrigin_Completed::Inst            0                       # Table walker requests started/completed, data/inst
system.cpu0.itb.walker.walkRequestOrigin_Completed::total            0                       # Table walker requests started/completed, data/inst
system.cpu0.itb.walker.walkRequestOrigin::total            0                       # Table walker requests started/completed, data/inst
system.cpu0.itb.inst_hits                           0                       # ITB inst hits
system.cpu0.itb.inst_misses                         0                       # ITB inst misses
system.cpu0.itb.read_hits                           0                       # DTB read hits
system.cpu0.itb.read_misses                         0                       # DTB read misses
system.cpu0.itb.write_hits                          0                       # DTB write hits
system.cpu0.itb.write_misses                        0                       # DTB write misses
system.cpu0.itb.flush_tlb                           0                       # Number of times complete TLB was flushed
system.cpu0.itb.flush_tlb_mva                       0                       # Number of times TLB was flushed by MVA
system.cpu0.itb.flush_tlb_mva_asid                  0                       # Number of times TLB was flushed by MVA & ASID
system.cpu0.itb.flush_tlb_asid                      0                       # Number of times TLB was flushed by ASID
system.cpu0.itb.flush_entries                       0                       # Number of entries that have been flushed from TLB
system.cpu0.itb.align_faults                        0                       # Number of TLB faults due to alignment restrictions
system.cpu0.itb.prefetch_faults                     0                       # Number of TLB faults due to prefetch
system.cpu0.itb.domain_faults                       0                       # Number of TLB faults due to domain restrictions
system.cpu0.itb.perms_faults                        0                       # Number of TLB faults due to permissions restrictions
system.cpu0.itb.read_accesses                       0                       # DTB read accesses
system.cpu0.itb.write_accesses                      0                       # DTB write accesses
system.cpu0.itb.inst_accesses                       0                       # ITB inst accesses
system.cpu0.itb.hits                                0                       # DTB hits
system.cpu0.itb.misses                              0                       # DTB misses
system.cpu0.itb.accesses                            0                       # DTB accesses
system.cpu0.workload.num_syscalls               15316                       # Number of system calls
system.cpu0.numCycles                        18019758                       # number of cpu cycles simulated
system.cpu0.numWorkItemsStarted                     0                       # number of work items this cpu started
system.cpu0.numWorkItemsCompleted                   0                       # number of work items this cpu completed
system.cpu0.fetch.icacheStallCycles              8214                       # Number of cycles fetch is stalled on an Icache miss
system.cpu0.fetch.Insts                      44995418                       # Number of instructions fetch has processed
system.cpu0.fetch.Branches                    8998910                       # Number of branches that fetch encountered
system.cpu0.fetch.predictedBranches           8997176                       # Number of branches that fetch has predicted taken
system.cpu0.fetch.Cycles                     18002591                       # Number of cycles fetch has run and was not squashing or blocked
system.cpu0.fetch.SquashCycles                   1265                       # Number of cycles fetch has spent squashing
system.cpu0.fetch.PendingTrapStallCycles          148                       # Number of stall cycles due to pending traps
system.cpu0.fetch.CacheLines                     1918                       # Number of cache lines fetched
system.cpu0.fetch.IcacheSquashes                  250                       # Number of outstanding Icache misses that were squashed
system.cpu0.fetch.rateDist::samples          18011585                       # Number of instructions fetched each cycle (Total)
system.cpu0.fetch.rateDist::mean             2.498374                       # Number of instructions fetched each cycle (Total)
system.cpu0.fetch.rateDist::stdev            0.504165                       # Number of instructions fetched each cycle (Total)
system.cpu0.fetch.rateDist::underflows              0      0.00%      0.00% # Number of instructions fetched each cycle (Total)
system.cpu0.fetch.rateDist::0                   12350      0.07%      0.07% # Number of instructions fetched each cycle (Total)
system.cpu0.fetch.rateDist::1                     639      0.00%      0.07% # Number of instructions fetched each cycle (Total)
system.cpu0.fetch.rateDist::2                 8996743     49.95%     50.02% # Number of instructions fetched each cycle (Total)
system.cpu0.fetch.rateDist::3                 9001853     49.98%    100.00% # Number of instructions fetched each cycle (Total)
system.cpu0.fetch.rateDist::overflows               0      0.00%    100.00% # Number of instructions fetched each cycle (Total)
system.cpu0.fetch.rateDist::min_value               0                       # Number of instructions fetched each cycle (Total)
system.cpu0.fetch.rateDist::max_value               3                       # Number of instructions fetched each cycle (Total)
system.cpu0.fetch.rateDist::total            18011585                       # Number of instructions fetched each cycle (Total)
system.cpu0.fetch.branchRate                 0.499391                       # Number of branch fetches per cycle
system.cpu0.fetch.rate                       2.497005                       # Number of inst fetches per cycle
system.cpu0.decode.IdleCycles                    7698                       # Number of cycles decode is idle
system.cpu0.decode.BlockedCycles                 5119                       # Number of cycles decode is blocked
system.cpu0.decode.RunCycles                 17997685                       # Number of cycles decode is running
system.cpu0.decode.UnblockCycles                  645                       # Number of cycles decode is unblocking
system.cpu0.decode.SquashCycles                   438                       # Number of cycles decode is squashing
system.cpu0.decode.BranchResolved                 360                       # Number of times decode resolved a branch
system.cpu0.decode.BranchMispred                  201                       # Number of times decode detected a branch misprediction
system.cpu0.decode.DecodedInsts              44997336                       # Number of instructions handled by decode
system.cpu0.decode.SquashedInsts                  477                       # Number of squashed instructions handled by decode
system.cpu0.rename.SquashCycles                   438                       # Number of cycles rename is squashing
system.cpu0.rename.IdleCycles                    8266                       # Number of cycles rename is idle
system.cpu0.rename.BlockCycles                    546                       # Number of cycles rename is blocking
system.cpu0.rename.serializeStallCycles          1845                       # count of cycles rename stalled for serializing inst
system.cpu0.rename.RunCycles                 17997653                       # Number of cycles rename is running
system.cpu0.rename.UnblockCycles                 2837                       # Number of cycles rename is unblocking
system.cpu0.rename.RenamedInsts              44996666                       # Number of instructions processed by rename
system.cpu0.rename.IQFullEvents                    16                       # Number of times rename has blocked due to IQ full
system.cpu0.rename.LQFullEvents                    11                       # Number of times rename has blocked due to LQ full
system.cpu0.rename.SQFullEvents                  2671                       # Number of times rename has blocked due to SQ full
system.cpu0.rename.RenamedOperands           44998203                       # Number of destination operands rename has renamed
system.cpu0.rename.RenameLookups            206989316                       # Number of register rename lookups that rename has made
system.cpu0.rename.int_rename_lookups        45001893                       # Number of integer rename lookups
system.cpu0.rename.fp_rename_lookups               16                       # Number of floating rename lookups
system.cpu0.rename.CommittedMaps             44992471                       # Number of HB maps that are committed
system.cpu0.rename.UndoneMaps                    5732                       # Number of HB maps that are undone due to squashing
system.cpu0.rename.serializingInsts                48                       # count of serializing insts renamed
system.cpu0.rename.tempSerializingInsts            47                       # count of temporary serializing insts renamed
system.cpu0.rename.skidInsts                     1206                       # count of insts added to the skid buffer
system.cpu0.memDep0.insertedLoads            17994068                       # Number of loads inserted to the mem dependence unit.
system.cpu0.memDep0.insertedStores            8999586                       # Number of stores inserted to the mem dependence unit.
system.cpu0.memDep0.conflictingLoads          8995774                       # Number of conflicting loads.
system.cpu0.memDep0.conflictingStores         8995746                       # Number of conflicting stores.
system.cpu0.iq.iqInstsAdded                  44995338                       # Number of instructions added to the IQ (excludes non-spec)
system.cpu0.iq.iqNonSpecInstsAdded                 70                       # Number of non-speculative instructions added to the IQ
system.cpu0.iq.iqInstsIssued                 44993759                       # Number of instructions issued
system.cpu0.iq.iqSquashedInstsIssued              165                       # Number of squashed instructions issued
system.cpu0.iq.iqSquashedInstsExamined           3974                       # Number of squashed instructions iterated over during squash; mainly for profiling
system.cpu0.iq.iqSquashedOperandsExamined         9872                       # Number of squashed operands that are examined and possibly removed from graph
system.cpu0.iq.iqSquashedNonSpecRemoved             5                       # Number of squashed non-spec instructions that were removed
system.cpu0.iq.issued_per_cycle::samples     18011585                       # Number of insts issued each cycle
system.cpu0.iq.issued_per_cycle::mean        2.498046                       # Number of insts issued each cycle
system.cpu0.iq.issued_per_cycle::stdev       0.710098                       # Number of insts issued each cycle
system.cpu0.iq.issued_per_cycle::underflows            0      0.00%      0.00% # Number of insts issued each cycle
system.cpu0.iq.issued_per_cycle::0              12620      0.07%      0.07% # Number of insts issued each cycle
system.cpu0.iq.issued_per_cycle::1            2251803     12.50%     12.57% # Number of insts issued each cycle
system.cpu0.iq.issued_per_cycle::2            4499530     24.98%     37.55% # Number of insts issued each cycle
system.cpu0.iq.issued_per_cycle::3           11247632     62.45%    100.00% # Number of insts issued each cycle
system.cpu0.iq.issued_per_cycle::overflows            0      0.00%    100.00% # Number of insts issued each cycle
system.cpu0.iq.issued_per_cycle::min_value            0                       # Number of insts issued each cycle
system.cpu0.iq.issued_per_cycle::max_value            3                       # Number of insts issued each cycle
system.cpu0.iq.issued_per_cycle::total       18011585                       # Number of insts issued each cycle
system.cpu0.iq.fu_full::No_OpClass                  0                       # attempts to use FU when none available
system.cpu0.iq.fu_full::IntAlu                      0                       # attempts to use FU when none available
system.cpu0.iq.fu_full::IntMult                     0                       # attempts to use FU when none available
system.cpu0.iq.fu_full::IntDiv                      0                       # attempts to use FU when none available
system.cpu0.iq.fu_full::FloatAdd                    0                       # attempts to use FU when none available
system.cpu0.iq.fu_full::FloatCmp                    0                       # attempts to use FU when none available
system.cpu0.iq.fu_full::FloatCvt                    0                       # attempts to use FU when none available
system.cpu0.iq.fu_full::FloatMult                   0                       # attempts to use FU when none available
system.cpu0.iq.fu_full::FloatDiv                    0                       # attempts to use FU when none available
system.cpu0.iq.fu_full::FloatSqrt                   0                       # attempts to use FU when none available
system.cpu0.iq.fu_full::SimdAdd                     0                       # attempts to use FU when none available
system.cpu0.iq.fu_full::SimdAddAcc                  0                       # attempts to use FU when none available
system.cpu0.iq.fu_full::SimdAlu                     0                       # attempts to use FU when none available
system.cpu0.iq.fu_full::SimdCmp                     0                       # attempts to use FU when none available
system.cpu0.iq.fu_full::SimdCvt                     0                       # attempts to use FU when none available
system.cpu0.iq.fu_full::SimdMisc                    0                       # attempts to use FU when none available
system.cpu0.iq.fu_full::SimdMult                    0                       # attempts to use FU when none available
system.cpu0.iq.fu_full::SimdMultAcc                 0                       # attempts to use FU when none available
system.cpu0.iq.fu_full::SimdShift                   0                       # attempts to use FU when none available
system.cpu0.iq.fu_full::SimdShiftAcc                0                       # attempts to use FU when none available
system.cpu0.iq.fu_full::SimdSqrt                    0                       # attempts to use FU when none available
system.cpu0.iq.fu_full::SimdFloatAdd                0                       # attempts to use FU when none available
system.cpu0.iq.fu_full::SimdFloatAlu                0                       # attempts to use FU when none available
system.cpu0.iq.fu_full::SimdFloatCmp                0                       # attempts to use FU when none available
system.cpu0.iq.fu_full::SimdFloatCvt                0                       # attempts to use FU when none available
system.cpu0.iq.fu_full::SimdFloatDiv                0                       # attempts to use FU when none available
system.cpu0.iq.fu_full::SimdFloatMisc               0                       # attempts to use FU when none available
system.cpu0.iq.fu_full::SimdFloatMult               0                       # attempts to use FU when none available
system.cpu0.iq.fu_full::SimdFloatMultAcc            0                       # attempts to use FU when none available
system.cpu0.iq.fu_full::SimdFloatSqrt               0                       # attempts to use FU when none available
system.cpu0.iq.fu_full::MemRead                     0                       # attempts to use FU when none available
system.cpu0.iq.fu_full::MemWrite                    0                       # attempts to use FU when none available
system.cpu0.iq.fu_full::IprAccess                   0                       # attempts to use FU when none available
system.cpu0.iq.fu_full::InstPrefetch                0                       # attempts to use FU when none available
system.cpu0.iq.FU_type_0::No_OpClass                0      0.00%      0.00% # Type of FU issued
system.cpu0.iq.FU_type_0::IntAlu             18000573     40.01%     40.01% # Type of FU issued
system.cpu0.iq.FU_type_0::IntMult                   6      0.00%     40.01% # Type of FU issued
system.cpu0.iq.FU_type_0::IntDiv                    0      0.00%     40.01% # Type of FU issued
system.cpu0.iq.FU_type_0::FloatAdd                  0      0.00%     40.01% # Type of FU issued
system.cpu0.iq.FU_type_0::FloatCmp                  0      0.00%     40.01% # Type of FU issued
system.cpu0.iq.FU_type_0::FloatCvt                  0      0.00%     40.01% # Type of FU issued
system.cpu0.iq.FU_type_0::FloatMult                 0      0.00%     40.01% # Type of FU issued
system.cpu0.iq.FU_type_0::FloatDiv                  0      0.00%     40.01% # Type of FU issued
system.cpu0.iq.FU_type_0::FloatSqrt                 0      0.00%     40.01% # Type of FU issued
system.cpu0.iq.FU_type_0::SimdAdd                   0      0.00%     40.01% # Type of FU issued
system.cpu0.iq.FU_type_0::SimdAddAcc                0      0.00%     40.01% # Type of FU issued
system.cpu0.iq.FU_type_0::SimdAlu                   0      0.00%     40.01% # Type of FU issued
system.cpu0.iq.FU_type_0::SimdCmp                   0      0.00%     40.01% # Type of FU issued
system.cpu0.iq.FU_type_0::SimdCvt                   0      0.00%     40.01% # Type of FU issued
system.cpu0.iq.FU_type_0::SimdMisc                  0      0.00%     40.01% # Type of FU issued
system.cpu0.iq.FU_type_0::SimdMult                  0      0.00%     40.01% # Type of FU issued
system.cpu0.iq.FU_type_0::SimdMultAcc               0      0.00%     40.01% # Type of FU issued
system.cpu0.iq.FU_type_0::SimdShift                 0      0.00%     40.01% # Type of FU issued
system.cpu0.iq.FU_type_0::SimdShiftAcc              0      0.00%     40.01% # Type of FU issued
system.cpu0.iq.FU_type_0::SimdSqrt                  0      0.00%     40.01% # Type of FU issued
system.cpu0.iq.FU_type_0::SimdFloatAdd              0      0.00%     40.01% # Type of FU issued
system.cpu0.iq.FU_type_0::SimdFloatAlu              0      0.00%     40.01% # Type of FU issued
system.cpu0.iq.FU_type_0::SimdFloatCmp              0      0.00%     40.01% # Type of FU issued
system.cpu0.iq.FU_type_0::SimdFloatCvt              0      0.00%     40.01% # Type of FU issued
system.cpu0.iq.FU_type_0::SimdFloatDiv              0      0.00%     40.01% # Type of FU issued
system.cpu0.iq.FU_type_0::SimdFloatMisc             3      0.00%     40.01% # Type of FU issued
system.cpu0.iq.FU_type_0::SimdFloatMult             0      0.00%     40.01% # Type of FU issued
system.cpu0.iq.FU_type_0::SimdFloatMultAcc            0      0.00%     40.01% # Type of FU issued
system.cpu0.iq.FU_type_0::SimdFloatSqrt             0      0.00%     40.01% # Type of FU issued
system.cpu0.iq.FU_type_0::MemRead            17993777     39.99%     80.00% # Type of FU issued
system.cpu0.iq.FU_type_0::MemWrite            8999400     20.00%    100.00% # Type of FU issued
system.cpu0.iq.FU_type_0::IprAccess                 0      0.00%    100.00% # Type of FU issued
system.cpu0.iq.FU_type_0::InstPrefetch              0      0.00%    100.00% # Type of FU issued
system.cpu0.iq.FU_type_0::total              44993759                       # Type of FU issued
system.cpu0.iq.rate                          2.496913                       # Inst issue rate
system.cpu0.iq.fu_busy_cnt                          0                       # FU busy when requested
system.cpu0.iq.fu_busy_rate                         0                       # FU busy rate (busy events/executed inst)
system.cpu0.iq.int_inst_queue_reads         107999236                       # Number of integer instruction queue reads
system.cpu0.iq.int_inst_queue_writes         44999412                       # Number of integer instruction queue writes
system.cpu0.iq.int_inst_queue_wakeup_accesses     44993056                       # Number of integer instruction queue wakeup accesses
system.cpu0.iq.fp_inst_queue_reads                 32                       # Number of floating instruction queue reads
system.cpu0.iq.fp_inst_queue_writes                16                       # Number of floating instruction queue writes
system.cpu0.iq.fp_inst_queue_wakeup_accesses           16                       # Number of floating instruction queue wakeup accesses
system.cpu0.iq.int_alu_accesses              44993743                       # Number of integer alu accesses
system.cpu0.iq.fp_alu_accesses                     16                       # Number of floating point alu accesses
system.cpu0.iew.lsq.thread0.forwLoads         8995842                       # Number of loads that had data forwarded from stores
system.cpu0.iew.lsq.thread0.invAddrLoads            0                       # Number of loads ignored due to an invalid address
system.cpu0.iew.lsq.thread0.squashedLoads         1021                       # Number of loads squashed
system.cpu0.iew.lsq.thread0.ignoredResponses            2                       # Number of memory responses ignored because the instruction is squashed
system.cpu0.iew.lsq.thread0.memOrderViolation           46                       # Number of memory ordering violations
system.cpu0.iew.lsq.thread0.squashedStores          367                       # Number of stores squashed
system.cpu0.iew.lsq.thread0.invAddrSwpfs            0                       # Number of software prefetches ignored due to an invalid address
system.cpu0.iew.lsq.thread0.blockedLoads            0                       # Number of blocked loads due to partial load-store forwarding
system.cpu0.iew.lsq.thread0.rescheduledLoads            5                       # Number of loads that were rescheduled
system.cpu0.iew.lsq.thread0.cacheBlocked            0                       # Number of times an access to memory failed due to the cache being blocked
system.cpu0.iew.iewIdleCycles                       0                       # Number of cycles IEW is idle
system.cpu0.iew.iewSquashCycles                   438                       # Number of cycles IEW is squashing
system.cpu0.iew.iewBlockCycles                    410                       # Number of cycles IEW is blocking
system.cpu0.iew.iewUnblockCycles                  136                       # Number of cycles IEW is unblocking
system.cpu0.iew.iewDispatchedInsts           44995427                       # Number of instructions dispatched to IQ
system.cpu0.iew.iewDispSquashedInsts              242                       # Number of squashed instructions skipped by dispatch
system.cpu0.iew.iewDispLoadInsts             17994068                       # Number of dispatched load instructions
system.cpu0.iew.iewDispStoreInsts             8999586                       # Number of dispatched store instructions
system.cpu0.iew.iewDispNonSpecInsts                44                       # Number of dispatched non-speculative instructions
system.cpu0.iew.iewIQFullEvents                    11                       # Number of times the IQ has become full, causing a stall
system.cpu0.iew.iewLSQFullEvents                    0                       # Number of times the LSQ has become full, causing a stall
system.cpu0.iew.memOrderViolationEvents            46                       # Number of memory order violations
system.cpu0.iew.predictedTakenIncorrect           106                       # Number of branches that were predicted taken incorrectly
system.cpu0.iew.predictedNotTakenIncorrect          298                       # Number of branches that were predicted not taken incorrectly
system.cpu0.iew.branchMispredicts                 404                       # Number of branch mispredicts detected at execute
system.cpu0.iew.iewExecutedInsts             44993358                       # Number of executed instructions
system.cpu0.iew.iewExecLoadInsts             17993665                       # Number of load instructions executed
system.cpu0.iew.iewExecSquashedInsts              401                       # Number of squashed instructions skipped in execute
system.cpu0.iew.exec_swp                            0                       # number of swp insts executed
system.cpu0.iew.exec_nop                           19                       # number of nop insts executed
system.cpu0.iew.exec_refs                    26992995                       # number of memory reference insts executed
system.cpu0.iew.exec_branches                 8997761                       # Number of branches executed
system.cpu0.iew.exec_forward_branches             833                       # Number of forward branches executed
system.cpu0.iew.exec_backward_branches        8996621                       # Number of backward branches executed
system.cpu0.iew.exec_taken_forward_branches          301                       # Number of forward branches executed that is taken
system.cpu0.iew.exec_nottaken_forward_branches          532                       # Number of forward branches executed that is not taken
system.cpu0.iew.exec_taken_backward_branches      8996387                       # Number of backward branches executed that is taken
system.cpu0.iew.exec_nottaken_backward_branches          234                       # Number of backward branches executed that is not taken
system.cpu0.iew.exec_stores                   8999330                       # Number of stores executed
system.cpu0.iew.exec_rate                    2.496890                       # Inst execution rate
system.cpu0.iew.wb_sent                      44993145                       # cumulative count of insts sent to commit
system.cpu0.iew.wb_count                     44993072                       # cumulative count of insts written-back
system.cpu0.iew.wb_producers                 26993626                       # num instructions producing a value
system.cpu0.iew.wb_consumers                 27003521                       # num instructions consuming a value
system.cpu0.iew.wb_penalized                        0                       # number of instrctions required to write to 'other' IQ
system.cpu0.iew.wb_rate                      2.496874                       # insts written-back per cycle
system.cpu0.iew.wb_fanout                    0.999634                       # average fanout of values written-back
system.cpu0.iew.wb_penalized_rate                   0                       # fraction of instructions written-back that wrote to 'other' IQ
system.cpu0.commit.commitSquashedInsts           3992                       # The number of squashed insts skipped by commit
system.cpu0.commit.commitNonSpecStalls             65                       # The number of times commit has been forced to stall to communicate backwards
system.cpu0.commit.branchMispredicts              380                       # The number of times a branch was mispredicted
system.cpu0.commit.committed_per_cycle::samples     18010847                       # Number of insts commited each cycle
system.cpu0.commit.committed_per_cycle::mean     2.498019                       # Number of insts commited each cycle
system.cpu0.commit.committed_per_cycle::stdev     1.581972                       # Number of insts commited each cycle
system.cpu0.commit.committed_per_cycle::underflows            0      0.00%      0.00% # Number of insts commited each cycle
system.cpu0.commit.committed_per_cycle::0        13462      0.07%      0.07% # Number of insts commited each cycle
system.cpu0.commit.committed_per_cycle::1      8998249     49.96%     50.03% # Number of insts commited each cycle
system.cpu0.commit.committed_per_cycle::2         1144      0.01%     50.04% # Number of insts commited each cycle
system.cpu0.commit.committed_per_cycle::3      2250753     12.50%     62.54% # Number of insts commited each cycle
system.cpu0.commit.committed_per_cycle::4      4497992     24.97%     87.51% # Number of insts commited each cycle
system.cpu0.commit.committed_per_cycle::5      2249034     12.49%    100.00% # Number of insts commited each cycle
system.cpu0.commit.committed_per_cycle::6           71      0.00%    100.00% # Number of insts commited each cycle
system.cpu0.commit.committed_per_cycle::7           62      0.00%    100.00% # Number of insts commited each cycle
system.cpu0.commit.committed_per_cycle::8           80      0.00%    100.00% # Number of insts commited each cycle
system.cpu0.commit.committed_per_cycle::overflows            0      0.00%    100.00% # Number of insts commited each cycle
system.cpu0.commit.committed_per_cycle::min_value            0                       # Number of insts commited each cycle
system.cpu0.commit.committed_per_cycle::max_value            8                       # Number of insts commited each cycle
system.cpu0.commit.committed_per_cycle::total     18010847                       # Number of insts commited each cycle
system.cpu0.commit.committedInsts            44988101                       # Number of instructions committed
system.cpu0.commit.committedOps              44991434                       # Number of ops (including micro ops) committed
system.cpu0.commit.swp_count                        0                       # Number of s/w prefetches committed
system.cpu0.commit.refs                      26992266                       # Number of memory references committed
system.cpu0.commit.loads                     17993047                       # Number of loads committed
system.cpu0.commit.membars                         26                       # Number of memory barriers committed
system.cpu0.commit.branches                   8997445                       # Number of branches committed
system.cpu0.commit.fp_insts                        16                       # Number of committed floating point instructions.
system.cpu0.commit.int_insts                 35994367                       # Number of committed integer instructions.
system.cpu0.commit.function_calls                 148                       # Number of function calls committed.
system.cpu0.commit.op_class_0::No_OpClass            0      0.00%      0.00% # Class of committed instruction
system.cpu0.commit.op_class_0::IntAlu        17999159     40.01%     40.01% # Class of committed instruction
system.cpu0.commit.op_class_0::IntMult              6      0.00%     40.01% # Class of committed instruction
system.cpu0.commit.op_class_0::IntDiv               0      0.00%     40.01% # Class of committed instruction
system.cpu0.commit.op_class_0::FloatAdd             0      0.00%     40.01% # Class of committed instruction
system.cpu0.commit.op_class_0::FloatCmp             0      0.00%     40.01% # Class of committed instruction
system.cpu0.commit.op_class_0::FloatCvt             0      0.00%     40.01% # Class of committed instruction
system.cpu0.commit.op_class_0::FloatMult            0      0.00%     40.01% # Class of committed instruction
system.cpu0.commit.op_class_0::FloatDiv             0      0.00%     40.01% # Class of committed instruction
system.cpu0.commit.op_class_0::FloatSqrt            0      0.00%     40.01% # Class of committed instruction
system.cpu0.commit.op_class_0::SimdAdd              0      0.00%     40.01% # Class of committed instruction
system.cpu0.commit.op_class_0::SimdAddAcc            0      0.00%     40.01% # Class of committed instruction
system.cpu0.commit.op_class_0::SimdAlu              0      0.00%     40.01% # Class of committed instruction
system.cpu0.commit.op_class_0::SimdCmp              0      0.00%     40.01% # Class of committed instruction
system.cpu0.commit.op_class_0::SimdCvt              0      0.00%     40.01% # Class of committed instruction
system.cpu0.commit.op_class_0::SimdMisc             0      0.00%     40.01% # Class of committed instruction
system.cpu0.commit.op_class_0::SimdMult             0      0.00%     40.01% # Class of committed instruction
system.cpu0.commit.op_class_0::SimdMultAcc            0      0.00%     40.01% # Class of committed instruction
system.cpu0.commit.op_class_0::SimdShift            0      0.00%     40.01% # Class of committed instruction
system.cpu0.commit.op_class_0::SimdShiftAcc            0      0.00%     40.01% # Class of committed instruction
system.cpu0.commit.op_class_0::SimdSqrt             0      0.00%     40.01% # Class of committed instruction
system.cpu0.commit.op_class_0::SimdFloatAdd            0      0.00%     40.01% # Class of committed instruction
system.cpu0.commit.op_class_0::SimdFloatAlu            0      0.00%     40.01% # Class of committed instruction
system.cpu0.commit.op_class_0::SimdFloatCmp            0      0.00%     40.01% # Class of committed instruction
system.cpu0.commit.op_class_0::SimdFloatCvt            0      0.00%     40.01% # Class of committed instruction
system.cpu0.commit.op_class_0::SimdFloatDiv            0      0.00%     40.01% # Class of committed instruction
system.cpu0.commit.op_class_0::SimdFloatMisc            3      0.00%     40.01% # Class of committed instruction
system.cpu0.commit.op_class_0::SimdFloatMult            0      0.00%     40.01% # Class of committed instruction
system.cpu0.commit.op_class_0::SimdFloatMultAcc            0      0.00%     40.01% # Class of committed instruction
system.cpu0.commit.op_class_0::SimdFloatSqrt            0      0.00%     40.01% # Class of committed instruction
system.cpu0.commit.op_class_0::MemRead       17993047     39.99%     80.00% # Class of committed instruction
system.cpu0.commit.op_class_0::MemWrite       8999219     20.00%    100.00% # Class of committed instruction
system.cpu0.commit.op_class_0::IprAccess            0      0.00%    100.00% # Class of committed instruction
system.cpu0.commit.op_class_0::InstPrefetch            0      0.00%    100.00% # Class of committed instruction
system.cpu0.commit.op_class_0::total         44991434                       # Class of committed instruction
system.cpu0.commit.bw_lim_events                   80                       # number cycles where commit BW limit reached
system.cpu0.rob.rob_reads                    63006036                       # The number of ROB reads
system.cpu0.rob.rob_writes                   89991594                       # The number of ROB writes
system.cpu0.timesIdled                            247                       # Number of times that the entire CPU went into an idle state and unscheduled itself
system.cpu0.idleCycles                           8173                       # Total number of cycles that the CPU has spent unscheduled due to idling
system.cpu0.committedInsts                   44988101                       # Number of Instructions Simulated
system.cpu0.committedOps                     44991434                       # Number of Ops (including micro ops) Simulated
system.cpu0.cpi                              0.400545                       # CPI: Cycles Per Instruction
system.cpu0.cpi_total                        0.400545                       # CPI: Total CPI of All Threads
system.cpu0.ipc                              2.496599                       # IPC: Instructions Per Cycle
system.cpu0.ipc_total                        2.496599                       # IPC: Total IPC of All Threads
system.cpu0.int_regfile_reads                44995843                       # number of integer regfile reads
system.cpu0.int_regfile_writes               17999492                       # number of integer regfile writes
system.cpu0.fp_regfile_reads                      336                       # number of floating regfile reads
system.cpu0.cc_regfile_reads                188960163                       # number of cc regfile reads
system.cpu0.cc_regfile_writes                26994676                       # number of cc regfile writes
system.cpu0.misc_regfile_reads               27346434                       # number of misc regfile reads
system.cpu0.misc_regfile_writes                    52                       # number of misc regfile writes
system.cpu0.dcache.tags.replacements               29                       # number of replacements
system.cpu0.dcache.tags.tagsinuse          147.490841                       # Cycle average of tags in use
system.cpu0.dcache.tags.total_refs           17994120                       # Total number of references to valid blocks.
system.cpu0.dcache.tags.sampled_refs              194                       # Sample count of references to valid blocks.
system.cpu0.dcache.tags.avg_refs         92753.195876                       # Average number of references to valid blocks.
system.cpu0.dcache.tags.warmup_cycle                0                       # Cycle when the warmup percentage was hit.
system.cpu0.dcache.tags.occ_blocks::cpu0.data   147.490841                       # Average occupied blocks per requestor
system.cpu0.dcache.tags.occ_percent::cpu0.data     0.288068                       # Average percentage of cache occupancy
system.cpu0.dcache.tags.occ_percent::total     0.288068                       # Average percentage of cache occupancy
system.cpu0.dcache.tags.occ_task_id_blocks::1024          165                       # Occupied blocks per task id
system.cpu0.dcache.tags.age_task_id_blocks_1024::0           24                       # Occupied blocks per task id
system.cpu0.dcache.tags.age_task_id_blocks_1024::4          141                       # Occupied blocks per task id
system.cpu0.dcache.tags.occ_task_id_percent::1024     0.322266                       # Percentage of cache occupancy per task id
system.cpu0.dcache.tags.tag_accesses         35994042                       # Number of tag accesses
system.cpu0.dcache.tags.data_accesses        35994042                       # Number of data accesses
system.cpu0.dcache.ReadReq_hits::cpu0.data      8997461                       # number of ReadReq hits
system.cpu0.dcache.ReadReq_hits::total        8997461                       # number of ReadReq hits
system.cpu0.dcache.WriteReq_hits::cpu0.data      8996780                       # number of WriteReq hits
system.cpu0.dcache.WriteReq_hits::total       8996780                       # number of WriteReq hits
system.cpu0.dcache.LoadLockedReq_hits::cpu0.data           22                       # number of LoadLockedReq hits
system.cpu0.dcache.LoadLockedReq_hits::total           22                       # number of LoadLockedReq hits
system.cpu0.dcache.StoreCondReq_hits::cpu0.data           24                       # number of StoreCondReq hits
system.cpu0.dcache.StoreCondReq_hits::total           24                       # number of StoreCondReq hits
system.cpu0.dcache.demand_hits::cpu0.data     17994241                       # number of demand (read+write) hits
system.cpu0.dcache.demand_hits::total        17994241                       # number of demand (read+write) hits
system.cpu0.dcache.overall_hits::cpu0.data     17994241                       # number of overall hits
system.cpu0.dcache.overall_hits::total       17994241                       # number of overall hits
system.cpu0.dcache.ReadReq_misses::cpu0.data          204                       # number of ReadReq misses
system.cpu0.dcache.ReadReq_misses::total          204                       # number of ReadReq misses
system.cpu0.dcache.WriteReq_misses::cpu0.data         2369                       # number of WriteReq misses
system.cpu0.dcache.WriteReq_misses::total         2369                       # number of WriteReq misses
system.cpu0.dcache.LoadLockedReq_misses::cpu0.data            3                       # number of LoadLockedReq misses
system.cpu0.dcache.LoadLockedReq_misses::total            3                       # number of LoadLockedReq misses
system.cpu0.dcache.StoreCondReq_misses::cpu0.data            1                       # number of StoreCondReq misses
system.cpu0.dcache.StoreCondReq_misses::total            1                       # number of StoreCondReq misses
system.cpu0.dcache.demand_misses::cpu0.data         2573                       # number of demand (read+write) misses
system.cpu0.dcache.demand_misses::total          2573                       # number of demand (read+write) misses
system.cpu0.dcache.overall_misses::cpu0.data         2573                       # number of overall misses
system.cpu0.dcache.overall_misses::total         2573                       # number of overall misses
system.cpu0.dcache.ReadReq_miss_latency::cpu0.data      9313993                       # number of ReadReq miss cycles
system.cpu0.dcache.ReadReq_miss_latency::total      9313993                       # number of ReadReq miss cycles
system.cpu0.dcache.WriteReq_miss_latency::cpu0.data    118804500                       # number of WriteReq miss cycles
system.cpu0.dcache.WriteReq_miss_latency::total    118804500                       # number of WriteReq miss cycles
system.cpu0.dcache.LoadLockedReq_miss_latency::cpu0.data       133500                       # number of LoadLockedReq miss cycles
system.cpu0.dcache.LoadLockedReq_miss_latency::total       133500                       # number of LoadLockedReq miss cycles
system.cpu0.dcache.StoreCondReq_miss_latency::cpu0.data         7500                       # number of StoreCondReq miss cycles
system.cpu0.dcache.StoreCondReq_miss_latency::total         7500                       # number of StoreCondReq miss cycles
system.cpu0.dcache.demand_miss_latency::cpu0.data    128118493                       # number of demand (read+write) miss cycles
system.cpu0.dcache.demand_miss_latency::total    128118493                       # number of demand (read+write) miss cycles
system.cpu0.dcache.overall_miss_latency::cpu0.data    128118493                       # number of overall miss cycles
system.cpu0.dcache.overall_miss_latency::total    128118493                       # number of overall miss cycles
system.cpu0.dcache.ReadReq_accesses::cpu0.data      8997665                       # number of ReadReq accesses(hits+misses)
system.cpu0.dcache.ReadReq_accesses::total      8997665                       # number of ReadReq accesses(hits+misses)
system.cpu0.dcache.WriteReq_accesses::cpu0.data      8999149                       # number of WriteReq accesses(hits+misses)
system.cpu0.dcache.WriteReq_accesses::total      8999149                       # number of WriteReq accesses(hits+misses)
system.cpu0.dcache.LoadLockedReq_accesses::cpu0.data           25                       # number of LoadLockedReq accesses(hits+misses)
system.cpu0.dcache.LoadLockedReq_accesses::total           25                       # number of LoadLockedReq accesses(hits+misses)
system.cpu0.dcache.StoreCondReq_accesses::cpu0.data           25                       # number of StoreCondReq accesses(hits+misses)
system.cpu0.dcache.StoreCondReq_accesses::total           25                       # number of StoreCondReq accesses(hits+misses)
system.cpu0.dcache.demand_accesses::cpu0.data     17996814                       # number of demand (read+write) accesses
system.cpu0.dcache.demand_accesses::total     17996814                       # number of demand (read+write) accesses
system.cpu0.dcache.overall_accesses::cpu0.data     17996814                       # number of overall (read+write) accesses
system.cpu0.dcache.overall_accesses::total     17996814                       # number of overall (read+write) accesses
system.cpu0.dcache.ReadReq_miss_rate::cpu0.data     0.000023                       # miss rate for ReadReq accesses
system.cpu0.dcache.ReadReq_miss_rate::total     0.000023                       # miss rate for ReadReq accesses
system.cpu0.dcache.WriteReq_miss_rate::cpu0.data     0.000263                       # miss rate for WriteReq accesses
system.cpu0.dcache.WriteReq_miss_rate::total     0.000263                       # miss rate for WriteReq accesses
system.cpu0.dcache.LoadLockedReq_miss_rate::cpu0.data     0.120000                       # miss rate for LoadLockedReq accesses
system.cpu0.dcache.LoadLockedReq_miss_rate::total     0.120000                       # miss rate for LoadLockedReq accesses
system.cpu0.dcache.StoreCondReq_miss_rate::cpu0.data     0.040000                       # miss rate for StoreCondReq accesses
system.cpu0.dcache.StoreCondReq_miss_rate::total     0.040000                       # miss rate for StoreCondReq accesses
system.cpu0.dcache.demand_miss_rate::cpu0.data     0.000143                       # miss rate for demand accesses
system.cpu0.dcache.demand_miss_rate::total     0.000143                       # miss rate for demand accesses
system.cpu0.dcache.overall_miss_rate::cpu0.data     0.000143                       # miss rate for overall accesses
system.cpu0.dcache.overall_miss_rate::total     0.000143                       # miss rate for overall accesses
system.cpu0.dcache.ReadReq_avg_miss_latency::cpu0.data 45656.828431                       # average ReadReq miss latency
system.cpu0.dcache.ReadReq_avg_miss_latency::total 45656.828431                       # average ReadReq miss latency
system.cpu0.dcache.WriteReq_avg_miss_latency::cpu0.data 50149.641199                       # average WriteReq miss latency
system.cpu0.dcache.WriteReq_avg_miss_latency::total 50149.641199                       # average WriteReq miss latency
system.cpu0.dcache.LoadLockedReq_avg_miss_latency::cpu0.data        44500                       # average LoadLockedReq miss latency
system.cpu0.dcache.LoadLockedReq_avg_miss_latency::total        44500                       # average LoadLockedReq miss latency
system.cpu0.dcache.StoreCondReq_avg_miss_latency::cpu0.data         7500                       # average StoreCondReq miss latency
system.cpu0.dcache.StoreCondReq_avg_miss_latency::total         7500                       # average StoreCondReq miss latency
system.cpu0.dcache.demand_avg_miss_latency::cpu0.data 49793.429071                       # average overall miss latency
system.cpu0.dcache.demand_avg_miss_latency::total 49793.429071                       # average overall miss latency
system.cpu0.dcache.overall_avg_miss_latency::cpu0.data 49793.429071                       # average overall miss latency
system.cpu0.dcache.overall_avg_miss_latency::total 49793.429071                       # average overall miss latency
system.cpu0.dcache.blocked_cycles::no_mshrs            0                       # number of cycles access was blocked
system.cpu0.dcache.blocked_cycles::no_targets            0                       # number of cycles access was blocked
system.cpu0.dcache.blocked::no_mshrs                0                       # number of cycles access was blocked
system.cpu0.dcache.blocked::no_targets              0                       # number of cycles access was blocked
system.cpu0.dcache.avg_blocked_cycles::no_mshrs          nan                       # average number of cycles each access was blocked
system.cpu0.dcache.avg_blocked_cycles::no_targets          nan                       # average number of cycles each access was blocked
system.cpu0.dcache.fast_writes                      0                       # number of fast writes performed
system.cpu0.dcache.cache_copies                     0                       # number of cache copies performed
system.cpu0.dcache.writebacks::writebacks           12                       # number of writebacks
system.cpu0.dcache.writebacks::total               12                       # number of writebacks
system.cpu0.dcache.ReadReq_mshr_hits::cpu0.data           70                       # number of ReadReq MSHR hits
system.cpu0.dcache.ReadReq_mshr_hits::total           70                       # number of ReadReq MSHR hits
system.cpu0.dcache.WriteReq_mshr_hits::cpu0.data         2186                       # number of WriteReq MSHR hits
system.cpu0.dcache.WriteReq_mshr_hits::total         2186                       # number of WriteReq MSHR hits
system.cpu0.dcache.LoadLockedReq_mshr_hits::cpu0.data            3                       # number of LoadLockedReq MSHR hits
system.cpu0.dcache.LoadLockedReq_mshr_hits::total            3                       # number of LoadLockedReq MSHR hits
system.cpu0.dcache.demand_mshr_hits::cpu0.data         2256                       # number of demand (read+write) MSHR hits
system.cpu0.dcache.demand_mshr_hits::total         2256                       # number of demand (read+write) MSHR hits
system.cpu0.dcache.overall_mshr_hits::cpu0.data         2256                       # number of overall MSHR hits
system.cpu0.dcache.overall_mshr_hits::total         2256                       # number of overall MSHR hits
system.cpu0.dcache.ReadReq_mshr_misses::cpu0.data          134                       # number of ReadReq MSHR misses
system.cpu0.dcache.ReadReq_mshr_misses::total          134                       # number of ReadReq MSHR misses
system.cpu0.dcache.WriteReq_mshr_misses::cpu0.data          183                       # number of WriteReq MSHR misses
system.cpu0.dcache.WriteReq_mshr_misses::total          183                       # number of WriteReq MSHR misses
system.cpu0.dcache.StoreCondReq_mshr_misses::cpu0.data            1                       # number of StoreCondReq MSHR misses
system.cpu0.dcache.StoreCondReq_mshr_misses::total            1                       # number of StoreCondReq MSHR misses
system.cpu0.dcache.demand_mshr_misses::cpu0.data          317                       # number of demand (read+write) MSHR misses
system.cpu0.dcache.demand_mshr_misses::total          317                       # number of demand (read+write) MSHR misses
system.cpu0.dcache.overall_mshr_misses::cpu0.data          317                       # number of overall MSHR misses
system.cpu0.dcache.overall_mshr_misses::total          317                       # number of overall MSHR misses
system.cpu0.dcache.ReadReq_mshr_miss_latency::cpu0.data      6079505                       # number of ReadReq MSHR miss cycles
system.cpu0.dcache.ReadReq_mshr_miss_latency::total      6079505                       # number of ReadReq MSHR miss cycles
system.cpu0.dcache.WriteReq_mshr_miss_latency::cpu0.data      9967500                       # number of WriteReq MSHR miss cycles
system.cpu0.dcache.WriteReq_mshr_miss_latency::total      9967500                       # number of WriteReq MSHR miss cycles
system.cpu0.dcache.StoreCondReq_mshr_miss_latency::cpu0.data         4500                       # number of StoreCondReq MSHR miss cycles
system.cpu0.dcache.StoreCondReq_mshr_miss_latency::total         4500                       # number of StoreCondReq MSHR miss cycles
system.cpu0.dcache.demand_mshr_miss_latency::cpu0.data     16047005                       # number of demand (read+write) MSHR miss cycles
system.cpu0.dcache.demand_mshr_miss_latency::total     16047005                       # number of demand (read+write) MSHR miss cycles
system.cpu0.dcache.overall_mshr_miss_latency::cpu0.data     16047005                       # number of overall MSHR miss cycles
system.cpu0.dcache.overall_mshr_miss_latency::total     16047005                       # number of overall MSHR miss cycles
system.cpu0.dcache.ReadReq_mshr_miss_rate::cpu0.data     0.000015                       # mshr miss rate for ReadReq accesses
system.cpu0.dcache.ReadReq_mshr_miss_rate::total     0.000015                       # mshr miss rate for ReadReq accesses
system.cpu0.dcache.WriteReq_mshr_miss_rate::cpu0.data     0.000020                       # mshr miss rate for WriteReq accesses
system.cpu0.dcache.WriteReq_mshr_miss_rate::total     0.000020                       # mshr miss rate for WriteReq accesses
system.cpu0.dcache.StoreCondReq_mshr_miss_rate::cpu0.data     0.040000                       # mshr miss rate for StoreCondReq accesses
system.cpu0.dcache.StoreCondReq_mshr_miss_rate::total     0.040000                       # mshr miss rate for StoreCondReq accesses
system.cpu0.dcache.demand_mshr_miss_rate::cpu0.data     0.000018                       # mshr miss rate for demand accesses
system.cpu0.dcache.demand_mshr_miss_rate::total     0.000018                       # mshr miss rate for demand accesses
system.cpu0.dcache.overall_mshr_miss_rate::cpu0.data     0.000018                       # mshr miss rate for overall accesses
system.cpu0.dcache.overall_mshr_miss_rate::total     0.000018                       # mshr miss rate for overall accesses
system.cpu0.dcache.ReadReq_avg_mshr_miss_latency::cpu0.data 45369.440299                       # average ReadReq mshr miss latency
system.cpu0.dcache.ReadReq_avg_mshr_miss_latency::total 45369.440299                       # average ReadReq mshr miss latency
system.cpu0.dcache.WriteReq_avg_mshr_miss_latency::cpu0.data 54467.213115                       # average WriteReq mshr miss latency
system.cpu0.dcache.WriteReq_avg_mshr_miss_latency::total 54467.213115                       # average WriteReq mshr miss latency
system.cpu0.dcache.StoreCondReq_avg_mshr_miss_latency::cpu0.data         4500                       # average StoreCondReq mshr miss latency
system.cpu0.dcache.StoreCondReq_avg_mshr_miss_latency::total         4500                       # average StoreCondReq mshr miss latency
system.cpu0.dcache.demand_avg_mshr_miss_latency::cpu0.data 50621.466877                       # average overall mshr miss latency
system.cpu0.dcache.demand_avg_mshr_miss_latency::total 50621.466877                       # average overall mshr miss latency
system.cpu0.dcache.overall_avg_mshr_miss_latency::cpu0.data 50621.466877                       # average overall mshr miss latency
system.cpu0.dcache.overall_avg_mshr_miss_latency::total 50621.466877                       # average overall mshr miss latency
system.cpu0.dcache.no_allocate_misses               0                       # Number of misses that were no-allocate
system.cpu0.icache.tags.replacements               64                       # number of replacements
system.cpu0.icache.tags.tagsinuse          289.821482                       # Cycle average of tags in use
system.cpu0.icache.tags.total_refs               1472                       # Total number of references to valid blocks.
system.cpu0.icache.tags.sampled_refs              385                       # Sample count of references to valid blocks.
system.cpu0.icache.tags.avg_refs             3.823377                       # Average number of references to valid blocks.
system.cpu0.icache.tags.warmup_cycle                0                       # Cycle when the warmup percentage was hit.
system.cpu0.icache.tags.occ_blocks::cpu0.inst   289.821482                       # Average occupied blocks per requestor
system.cpu0.icache.tags.occ_percent::cpu0.inst     0.566058                       # Average percentage of cache occupancy
system.cpu0.icache.tags.occ_percent::total     0.566058                       # Average percentage of cache occupancy
system.cpu0.icache.tags.occ_task_id_blocks::1024          321                       # Occupied blocks per task id
system.cpu0.icache.tags.age_task_id_blocks_1024::0           44                       # Occupied blocks per task id
system.cpu0.icache.tags.age_task_id_blocks_1024::4          277                       # Occupied blocks per task id
system.cpu0.icache.tags.occ_task_id_percent::1024     0.626953                       # Percentage of cache occupancy per task id
system.cpu0.icache.tags.tag_accesses             4221                       # Number of tag accesses
system.cpu0.icache.tags.data_accesses            4221                       # Number of data accesses
system.cpu0.icache.ReadReq_hits::cpu0.inst         1472                       # number of ReadReq hits
system.cpu0.icache.ReadReq_hits::total           1472                       # number of ReadReq hits
system.cpu0.icache.demand_hits::cpu0.inst         1472                       # number of demand (read+write) hits
system.cpu0.icache.demand_hits::total            1472                       # number of demand (read+write) hits
system.cpu0.icache.overall_hits::cpu0.inst         1472                       # number of overall hits
system.cpu0.icache.overall_hits::total           1472                       # number of overall hits
system.cpu0.icache.ReadReq_misses::cpu0.inst          446                       # number of ReadReq misses
system.cpu0.icache.ReadReq_misses::total          446                       # number of ReadReq misses
system.cpu0.icache.demand_misses::cpu0.inst          446                       # number of demand (read+write) misses
system.cpu0.icache.demand_misses::total           446                       # number of demand (read+write) misses
system.cpu0.icache.overall_misses::cpu0.inst          446                       # number of overall misses
system.cpu0.icache.overall_misses::total          446                       # number of overall misses
system.cpu0.icache.ReadReq_miss_latency::cpu0.inst     23167497                       # number of ReadReq miss cycles
system.cpu0.icache.ReadReq_miss_latency::total     23167497                       # number of ReadReq miss cycles
system.cpu0.icache.demand_miss_latency::cpu0.inst     23167497                       # number of demand (read+write) miss cycles
system.cpu0.icache.demand_miss_latency::total     23167497                       # number of demand (read+write) miss cycles
system.cpu0.icache.overall_miss_latency::cpu0.inst     23167497                       # number of overall miss cycles
system.cpu0.icache.overall_miss_latency::total     23167497                       # number of overall miss cycles
system.cpu0.icache.ReadReq_accesses::cpu0.inst         1918                       # number of ReadReq accesses(hits+misses)
system.cpu0.icache.ReadReq_accesses::total         1918                       # number of ReadReq accesses(hits+misses)
system.cpu0.icache.demand_accesses::cpu0.inst         1918                       # number of demand (read+write) accesses
system.cpu0.icache.demand_accesses::total         1918                       # number of demand (read+write) accesses
system.cpu0.icache.overall_accesses::cpu0.inst         1918                       # number of overall (read+write) accesses
system.cpu0.icache.overall_accesses::total         1918                       # number of overall (read+write) accesses
system.cpu0.icache.ReadReq_miss_rate::cpu0.inst     0.232534                       # miss rate for ReadReq accesses
system.cpu0.icache.ReadReq_miss_rate::total     0.232534                       # miss rate for ReadReq accesses
system.cpu0.icache.demand_miss_rate::cpu0.inst     0.232534                       # miss rate for demand accesses
system.cpu0.icache.demand_miss_rate::total     0.232534                       # miss rate for demand accesses
system.cpu0.icache.overall_miss_rate::cpu0.inst     0.232534                       # miss rate for overall accesses
system.cpu0.icache.overall_miss_rate::total     0.232534                       # miss rate for overall accesses
system.cpu0.icache.ReadReq_avg_miss_latency::cpu0.inst 51945.060538                       # average ReadReq miss latency
system.cpu0.icache.ReadReq_avg_miss_latency::total 51945.060538                       # average ReadReq miss latency
system.cpu0.icache.demand_avg_miss_latency::cpu0.inst 51945.060538                       # average overall miss latency
system.cpu0.icache.demand_avg_miss_latency::total 51945.060538                       # average overall miss latency
system.cpu0.icache.overall_avg_miss_latency::cpu0.inst 51945.060538                       # average overall miss latency
system.cpu0.icache.overall_avg_miss_latency::total 51945.060538                       # average overall miss latency
system.cpu0.icache.blocked_cycles::no_mshrs           11                       # number of cycles access was blocked
system.cpu0.icache.blocked_cycles::no_targets            0                       # number of cycles access was blocked
system.cpu0.icache.blocked::no_mshrs                1                       # number of cycles access was blocked
system.cpu0.icache.blocked::no_targets              0                       # number of cycles access was blocked
system.cpu0.icache.avg_blocked_cycles::no_mshrs           11                       # average number of cycles each access was blocked
system.cpu0.icache.avg_blocked_cycles::no_targets          nan                       # average number of cycles each access was blocked
system.cpu0.icache.fast_writes                      0                       # number of fast writes performed
system.cpu0.icache.cache_copies                     0                       # number of cache copies performed
system.cpu0.icache.ReadReq_mshr_hits::cpu0.inst           61                       # number of ReadReq MSHR hits
system.cpu0.icache.ReadReq_mshr_hits::total           61                       # number of ReadReq MSHR hits
system.cpu0.icache.demand_mshr_hits::cpu0.inst           61                       # number of demand (read+write) MSHR hits
system.cpu0.icache.demand_mshr_hits::total           61                       # number of demand (read+write) MSHR hits
system.cpu0.icache.overall_mshr_hits::cpu0.inst           61                       # number of overall MSHR hits
system.cpu0.icache.overall_mshr_hits::total           61                       # number of overall MSHR hits
system.cpu0.icache.ReadReq_mshr_misses::cpu0.inst          385                       # number of ReadReq MSHR misses
system.cpu0.icache.ReadReq_mshr_misses::total          385                       # number of ReadReq MSHR misses
system.cpu0.icache.demand_mshr_misses::cpu0.inst          385                       # number of demand (read+write) MSHR misses
[...]
system.l2.ReadReq_mshr_miss_latency::total     36057500                       # number of ReadReq MSHR miss cycles
system.l2.UpgradeReq_mshr_miss_latency::cpu1.data   1270185412                       # number of UpgradeReq MSHR miss cycles
system.l2.UpgradeReq_mshr_miss_latency::cpu2.data   1180488712                       # number of UpgradeReq MSHR miss cycles
system.l2.UpgradeReq_mshr_miss_latency::total   2450674124                       # number of UpgradeReq MSHR miss cycles
system.l2.SCUpgradeReq_mshr_miss_latency::cpu1.data    389341308                       # number of SCUpgradeReq MSHR miss cycles
system.l2.SCUpgradeReq_mshr_miss_latency::cpu2.data    375288806                       # number of SCUpgradeReq MSHR miss cycles
system.l2.SCUpgradeReq_mshr_miss_latency::total    764630114                       # number of SCUpgradeReq MSHR miss cycles
system.l2.ReadExReq_mshr_miss_latency::cpu0.data      7343000                       # number of ReadExReq MSHR miss cycles
system.l2.ReadExReq_mshr_miss_latency::cpu1.data     12286000                       # number of ReadExReq MSHR miss cycles
system.l2.ReadExReq_mshr_miss_latency::cpu2.data     18232500                       # number of ReadExReq MSHR miss cycles
system.l2.ReadExReq_mshr_miss_latency::total     37861500                       # number of ReadExReq MSHR miss cycles
system.l2.demand_mshr_miss_latency::cpu0.inst     14362500                       # number of demand (read+write) MSHR miss cycles
system.l2.demand_mshr_miss_latency::cpu0.data     11395000                       # number of demand (read+write) MSHR miss cycles
system.l2.demand_mshr_miss_latency::cpu1.inst      7427000                       # number of demand (read+write) MSHR miss cycles
system.l2.demand_mshr_miss_latency::cpu1.data     15400500                       # number of demand (read+write) MSHR miss cycles
system.l2.demand_mshr_miss_latency::cpu2.inst      4280000                       # number of demand (read+write) MSHR miss cycles
system.l2.demand_mshr_miss_latency::cpu2.data     21054000                       # number of demand (read+write) MSHR miss cycles
system.l2.demand_mshr_miss_latency::total     73919000                       # number of demand (read+write) MSHR miss cycles
system.l2.overall_mshr_miss_latency::cpu0.inst     14362500                       # number of overall MSHR miss cycles
system.l2.overall_mshr_miss_latency::cpu0.data     11395000                       # number of overall MSHR miss cycles
system.l2.overall_mshr_miss_latency::cpu1.inst      7427000                       # number of overall MSHR miss cycles
system.l2.overall_mshr_miss_latency::cpu1.data     15400500                       # number of overall MSHR miss cycles
system.l2.overall_mshr_miss_latency::cpu2.inst      4280000                       # number of overall MSHR miss cycles
system.l2.overall_mshr_miss_latency::cpu2.data     21054000                       # number of overall MSHR miss cycles
system.l2.overall_mshr_miss_latency::total     73919000                       # number of overall MSHR miss cycles
system.l2.ReadReq_mshr_miss_rate::cpu0.inst     0.909091                       # mshr miss rate for ReadReq accesses
system.l2.ReadReq_mshr_miss_rate::cpu0.data     0.744186                       # mshr miss rate for ReadReq accesses
system.l2.ReadReq_mshr_miss_rate::cpu1.inst     0.204036                       # mshr miss rate for ReadReq accesses
system.l2.ReadReq_mshr_miss_rate::cpu1.data     0.005620                       # mshr miss rate for ReadReq accesses
system.l2.ReadReq_mshr_miss_rate::cpu2.inst     0.087427                       # mshr miss rate for ReadReq accesses
system.l2.ReadReq_mshr_miss_rate::cpu2.data     0.003916                       # mshr miss rate for ReadReq accesses
system.l2.ReadReq_mshr_miss_rate::total      0.026016                       # mshr miss rate for ReadReq accesses
system.l2.UpgradeReq_mshr_miss_rate::cpu1.data     0.999936                       # mshr miss rate for UpgradeReq accesses
system.l2.UpgradeReq_mshr_miss_rate::cpu2.data     0.999966                       # mshr miss rate for UpgradeReq accesses
system.l2.UpgradeReq_mshr_miss_rate::total     0.999934                       # mshr miss rate for UpgradeReq accesses
system.l2.SCUpgradeReq_mshr_miss_rate::cpu1.data     0.999792                       # mshr miss rate for SCUpgradeReq accesses
system.l2.SCUpgradeReq_mshr_miss_rate::cpu2.data     0.999892                       # mshr miss rate for SCUpgradeReq accesses
system.l2.SCUpgradeReq_mshr_miss_rate::total     0.999841                       # mshr miss rate for SCUpgradeReq accesses
system.l2.ReadExReq_mshr_miss_rate::cpu0.data            1                       # mshr miss rate for ReadExReq accesses
system.l2.ReadExReq_mshr_miss_rate::cpu1.data     0.990164                       # mshr miss rate for ReadExReq accesses
system.l2.ReadExReq_mshr_miss_rate::cpu2.data     0.931535                       # mshr miss rate for ReadExReq accesses
system.l2.ReadExReq_mshr_miss_rate::total     0.962771                       # mshr miss rate for ReadExReq accesses
system.l2.demand_mshr_miss_rate::cpu0.inst     0.909091                       # mshr miss rate for demand accesses
system.l2.demand_mshr_miss_rate::cpu0.data     0.893204                       # mshr miss rate for demand accesses
system.l2.demand_mshr_miss_rate::cpu1.inst     0.204036                       # mshr miss rate for demand accesses
system.l2.demand_mshr_miss_rate::cpu1.data     0.027338                       # mshr miss rate for demand accesses
system.l2.demand_mshr_miss_rate::cpu2.inst     0.087427                       # mshr miss rate for demand accesses
system.l2.demand_mshr_miss_rate::cpu2.data     0.028617                       # mshr miss rate for demand accesses
system.l2.demand_mshr_miss_rate::total       0.052110                       # mshr miss rate for demand accesses
system.l2.overall_mshr_miss_rate::cpu0.inst     0.909091                       # mshr miss rate for overall accesses
system.l2.overall_mshr_miss_rate::cpu0.data     0.893204                       # mshr miss rate for overall accesses
system.l2.overall_mshr_miss_rate::cpu1.inst     0.204036                       # mshr miss rate for overall accesses
system.l2.overall_mshr_miss_rate::cpu1.data     0.027338                       # mshr miss rate for overall accesses
system.l2.overall_mshr_miss_rate::cpu2.inst     0.087427                       # mshr miss rate for overall accesses
system.l2.overall_mshr_miss_rate::cpu2.data     0.028617                       # mshr miss rate for overall accesses
system.l2.overall_mshr_miss_rate::total      0.052110                       # mshr miss rate for overall accesses
system.l2.ReadReq_avg_mshr_miss_latency::cpu0.inst 41035.714286                       # average ReadReq mshr miss latency
system.l2.ReadReq_avg_mshr_miss_latency::cpu0.data 42208.333333                       # average ReadReq mshr miss latency
system.l2.ReadReq_avg_mshr_miss_latency::cpu1.inst 40807.692308                       # average ReadReq mshr miss latency
system.l2.ReadReq_avg_mshr_miss_latency::cpu1.data 40980.263158                       # average ReadReq mshr miss latency
system.l2.ReadReq_avg_mshr_miss_latency::cpu2.inst 40761.904762                       # average ReadReq mshr miss latency
system.l2.ReadReq_avg_mshr_miss_latency::cpu2.data 40891.304348                       # average ReadReq mshr miss latency
system.l2.ReadReq_avg_mshr_miss_latency::total 41067.767654                       # average ReadReq mshr miss latency
system.l2.UpgradeReq_avg_mshr_miss_latency::cpu1.data 40525.329803                       # average UpgradeReq mshr miss latency
system.l2.UpgradeReq_avg_mshr_miss_latency::cpu2.data 40522.062062                       # average UpgradeReq mshr miss latency
system.l2.UpgradeReq_avg_mshr_miss_latency::total 40523.755668                       # average UpgradeReq mshr miss latency
system.l2.SCUpgradeReq_avg_mshr_miss_latency::cpu1.data 40509.968578                       # average SCUpgradeReq mshr miss latency
system.l2.SCUpgradeReq_avg_mshr_miss_latency::cpu2.data 40510.449698                       # average SCUpgradeReq mshr miss latency
system.l2.SCUpgradeReq_avg_mshr_miss_latency::total 40510.204715                       # average SCUpgradeReq mshr miss latency
system.l2.ReadExReq_avg_mshr_miss_latency::cpu0.data 40794.444444                       # average ReadExReq mshr miss latency
system.l2.ReadExReq_avg_mshr_miss_latency::cpu1.data 40682.119205                       # average ReadExReq mshr miss latency
system.l2.ReadExReq_avg_mshr_miss_latency::cpu2.data 40606.904232                       # average ReadExReq mshr miss latency
system.l2.ReadExReq_avg_mshr_miss_latency::total 40667.561762                       # average ReadExReq mshr miss latency
system.l2.demand_avg_mshr_miss_latency::cpu0.inst 41035.714286                       # average overall mshr miss latency
system.l2.demand_avg_mshr_miss_latency::cpu0.data 41286.231884                       # average overall mshr miss latency
system.l2.demand_avg_mshr_miss_latency::cpu1.inst 40807.692308                       # average overall mshr miss latency
system.l2.demand_avg_mshr_miss_latency::cpu1.data 40742.063492                       # average overall mshr miss latency
system.l2.demand_avg_mshr_miss_latency::cpu2.inst 40761.904762                       # average overall mshr miss latency
system.l2.demand_avg_mshr_miss_latency::cpu2.data 40644.787645                       # average overall mshr miss latency
system.l2.demand_avg_mshr_miss_latency::total 40861.802101                       # average overall mshr miss latency
system.l2.overall_avg_mshr_miss_latency::cpu0.inst 41035.714286                       # average overall mshr miss latency
system.l2.overall_avg_mshr_miss_latency::cpu0.data 41286.231884                       # average overall mshr miss latency
system.l2.overall_avg_mshr_miss_latency::cpu1.inst 40807.692308                       # average overall mshr miss latency
system.l2.overall_avg_mshr_miss_latency::cpu1.data 40742.063492                       # average overall mshr miss latency
system.l2.overall_avg_mshr_miss_latency::cpu2.inst 40761.904762                       # average overall mshr miss latency
system.l2.overall_avg_mshr_miss_latency::cpu2.data 40644.787645                       # average overall mshr miss latency
system.l2.overall_avg_mshr_miss_latency::total 40861.802101                       # average overall mshr miss latency
system.l2.no_allocate_misses                        0                       # Number of misses that were no-allocate
system.membus.trans_dist::ReadReq                 878                       # Transaction distribution
system.membus.trans_dist::ReadResp                878                       # Transaction distribution
system.membus.trans_dist::UpgradeReq            96587                       # Transaction distribution
system.membus.trans_dist::SCUpgradeReq          78381                       # Transaction distribution
system.membus.trans_dist::UpgradeResp           79350                       # Transaction distribution
system.membus.trans_dist::ReadExReq               933                       # Transaction distribution
system.membus.trans_dist::ReadExResp              931                       # Transaction distribution
system.membus.pkt_count_system.l2.mem_side::system.physmem.port       257938                       # Packet count per connected master and slave (bytes)
system.membus.pkt_count::total                 257938                       # Packet count per connected master and slave (bytes)
system.membus.pkt_size_system.l2.mem_side::system.physmem.port       115776                       # Cumulative packet size per connected master and slave (bytes)
system.membus.pkt_size::total                  115776                       # Cumulative packet size per connected master and slave (bytes)
system.membus.snoops                            95620                       # Total snoops (count)
system.membus.snoop_fanout::samples            176938                       # Request fanout histogram
system.membus.snoop_fanout::mean                    0                       # Request fanout histogram
system.membus.snoop_fanout::stdev                   0                       # Request fanout histogram
system.membus.snoop_fanout::underflows              0      0.00%      0.00% # Request fanout histogram
system.membus.snoop_fanout::0                  176938    100.00%    100.00% # Request fanout histogram
system.membus.snoop_fanout::1                       0      0.00%    100.00% # Request fanout histogram
system.membus.snoop_fanout::overflows               0      0.00%    100.00% # Request fanout histogram
system.membus.snoop_fanout::min_value               0                       # Request fanout histogram
system.membus.snoop_fanout::max_value               0                       # Request fanout histogram
system.membus.snoop_fanout::total              176938                       # Request fanout histogram
system.membus.reqLayer0.occupancy           121029095                       # Layer occupancy (ticks)
system.membus.reqLayer0.utilization               0.7                       # Layer utilization (%)
system.membus.respLayer1.occupancy          127963131                       # Layer occupancy (ticks)
system.membus.respLayer1.utilization              0.7                       # Layer utilization (%)
system.tol2bus.trans_dist::ReadReq             218970                       # Transaction distribution
system.tol2bus.trans_dist::ReadResp            218970                       # Transaction distribution
system.tol2bus.trans_dist::Writeback            14107                       # Transaction distribution
system.tol2bus.trans_dist::UpgradeReq           96591                       # Transaction distribution
system.tol2bus.trans_dist::SCUpgradeReq         78384                       # Transaction distribution
system.tol2bus.trans_dist::UpgradeResp         174975                       # Transaction distribution
system.tol2bus.trans_dist::SCUpgradeFailReq          861                       # Transaction distribution
system.tol2bus.trans_dist::UpgradeFailResp          861                       # Transaction distribution
system.tol2bus.trans_dist::ReadExReq              975                       # Transaction distribution
system.tol2bus.trans_dist::ReadExResp             975                       # Transaction distribution
system.tol2bus.pkt_count_system.cpu0.icache.mem_side::system.l2.cpu_side          770                       # Packet count per connected master and slave (bytes)
system.tol2bus.pkt_count_system.cpu0.dcache.mem_side::system.l2.cpu_side          640                       # Packet count per connected master and slave (bytes)
system.tol2bus.pkt_count_system.cpu1.icache.mem_side::system.l2.cpu_side         1784                       # Packet count per connected master and slave (bytes)
system.tol2bus.pkt_count_system.cpu1.dcache.mem_side::system.l2.cpu_side       254450                       # Packet count per connected master and slave (bytes)
system.tol2bus.pkt_count_system.cpu2.icache.mem_side::system.l2.cpu_side         2402                       # Packet count per connected master and slave (bytes)
system.tol2bus.pkt_count_system.cpu2.dcache.mem_side::system.l2.cpu_side       263914                       # Packet count per connected master and slave (bytes)
system.tol2bus.pkt_count::total                523960                       # Packet count per connected master and slave (bytes)
system.tol2bus.pkt_size_system.cpu0.icache.mem_side::system.l2.cpu_side        24640                       # Cumulative packet size per connected master and slave (bytes)
system.tol2bus.pkt_size_system.cpu0.dcache.mem_side::system.l2.cpu_side        20544                       # Cumulative packet size per connected master and slave (bytes)
system.tol2bus.pkt_size_system.cpu1.icache.mem_side::system.l2.cpu_side        57088                       # Cumulative packet size per connected master and slave (bytes)
system.tol2bus.pkt_size_system.cpu1.dcache.mem_side::system.l2.cpu_side      1244864                       # Cumulative packet size per connected master and slave (bytes)
system.tol2bus.pkt_size_system.cpu2.icache.mem_side::system.l2.cpu_side        76864                       # Cumulative packet size per connected master and slave (bytes)
system.tol2bus.pkt_size_system.cpu2.dcache.mem_side::system.l2.cpu_side      1700608                       # Cumulative packet size per connected master and slave (bytes)
system.tol2bus.pkt_size::total                3124608                       # Cumulative packet size per connected master and slave (bytes)
system.tol2bus.snoops                          281709                       # Total snoops (count)
system.tol2bus.snoop_fanout::samples           409888                       # Request fanout histogram
system.tol2bus.snoop_fanout::mean                   5                       # Request fanout histogram
system.tol2bus.snoop_fanout::stdev                  0                       # Request fanout histogram
system.tol2bus.snoop_fanout::underflows             0      0.00%      0.00% # Request fanout histogram
system.tol2bus.snoop_fanout::0                      0      0.00%      0.00% # Request fanout histogram
system.tol2bus.snoop_fanout::1                      0      0.00%      0.00% # Request fanout histogram
system.tol2bus.snoop_fanout::2                      0      0.00%      0.00% # Request fanout histogram
system.tol2bus.snoop_fanout::3                      0      0.00%      0.00% # Request fanout histogram
system.tol2bus.snoop_fanout::4                      0      0.00%      0.00% # Request fanout histogram
system.tol2bus.snoop_fanout::5                 409888    100.00%    100.00% # Request fanout histogram
system.tol2bus.snoop_fanout::6                      0      0.00%    100.00% # Request fanout histogram
system.tol2bus.snoop_fanout::overflows              0      0.00%    100.00% # Request fanout histogram
system.tol2bus.snoop_fanout::min_value              5                       # Request fanout histogram
system.tol2bus.snoop_fanout::max_value              5                       # Request fanout histogram
system.tol2bus.snoop_fanout::total             409888                       # Request fanout histogram
system.tol2bus.reqLayer0.occupancy          220448200                       # Layer occupancy (ticks)
system.tol2bus.reqLayer0.utilization              1.2                       # Layer utilization (%)
system.tol2bus.respLayer0.occupancy            578997                       # Layer occupancy (ticks)
system.tol2bus.respLayer0.utilization             0.0                       # Layer utilization (%)
system.tol2bus.respLayer1.occupancy            475995                       # Layer occupancy (ticks)
system.tol2bus.respLayer1.utilization             0.0                       # Layer utilization (%)
system.tol2bus.respLayer4.occupancy           1350475                       # Layer occupancy (ticks)
system.tol2bus.respLayer4.utilization             0.0                       # Layer utilization (%)
system.tol2bus.respLayer5.occupancy         202771892                       # Layer occupancy (ticks)
system.tol2bus.respLayer5.utilization             1.1                       # Layer utilization (%)
system.tol2bus.respLayer8.occupancy           1831939                       # Layer occupancy (ticks)
system.tol2bus.respLayer8.utilization             0.0                       # Layer utilization (%)
system.tol2bus.respLayer9.occupancy         212553637                       # Layer occupancy (ticks)
system.tol2bus.respLayer9.utilization             1.2                       # Layer utilization (%)

---------- End Simulation Statistics   ----------
