
---------- Begin Simulation Statistics ----------
sim_seconds                                  0.068185                       # Number of seconds simulated
sim_ticks                                 68185045000                       # Number of ticks simulated
final_tick                                68185045000                       # Number of ticks from beginning of simulation (restored from checkpoints and never reset)
sim_freq                                 1000000000000                       # Frequency of simulated ticks
host_inst_rate                                 153987                       # Simulator instruction rate (inst/s)
host_op_rate                                   159573                       # Simulator op (including micro ops) rate (op/s)
host_tick_rate                               38153447                       # Simulator tick rate (ticks/s)
host_mem_usage                                 702204                       # Number of bytes of host memory used
host_seconds                                  1787.13                       # Real time elapsed on the host
sim_insts                                   275193551                       # Number of instructions simulated
sim_ops                                     285178058                       # Number of ops (including micro ops) simulated
system.voltage_domain.voltage                       1                       # Voltage in Volts
system.clk_domain.clock                          1000                       # Clock period in ticks
system.physmem.bytes_read::cpu0.inst            22528                       # Number of bytes read from this memory
system.physmem.bytes_read::cpu0.data            17792                       # Number of bytes read from this memory
system.physmem.bytes_read::cpu1.inst             8064                       # Number of bytes read from this memory
system.physmem.bytes_read::cpu1.data          3838208                       # Number of bytes read from this memory
system.physmem.bytes_read::cpu2.inst             2368                       # Number of bytes read from this memory
system.physmem.bytes_read::cpu2.data          3764096                       # Number of bytes read from this memory
system.physmem.bytes_read::cpu3.inst             4096                       # Number of bytes read from this memory
system.physmem.bytes_read::cpu3.data          4042176                       # Number of bytes read from this memory
system.physmem.bytes_read::cpu4.inst             5696                       # Number of bytes read from this memory
system.physmem.bytes_read::cpu4.data          3779456                       # Number of bytes read from this memory
system.physmem.bytes_read::total             15484480                       # Number of bytes read from this memory
system.physmem.bytes_inst_read::cpu0.inst        22528                       # Number of instructions bytes read from this memory
system.physmem.bytes_inst_read::cpu1.inst         8064                       # Number of instructions bytes read from this memory
system.physmem.bytes_inst_read::cpu2.inst         2368                       # Number of instructions bytes read from this memory
system.physmem.bytes_inst_read::cpu3.inst         4096                       # Number of instructions bytes read from this memory
system.physmem.bytes_inst_read::cpu4.inst         5696                       # Number of instructions bytes read from this memory
system.physmem.bytes_inst_read::total           42752                       # Number of instructions bytes read from this memory
system.physmem.bytes_written::writebacks       177216                       # Number of bytes written to this memory
system.physmem.bytes_written::total            177216                       # Number of bytes written to this memory
system.physmem.num_reads::cpu0.inst               352                       # Number of read requests responded to by this memory
system.physmem.num_reads::cpu0.data               278                       # Number of read requests responded to by this memory
system.physmem.num_reads::cpu1.inst               126                       # Number of read requests responded to by this memory
system.physmem.num_reads::cpu1.data             59972                       # Number of read requests responded to by this memory
system.physmem.num_reads::cpu2.inst                37                       # Number of read requests responded to by this memory
system.physmem.num_reads::cpu2.data             58814                       # Number of read requests responded to by this memory
system.physmem.num_reads::cpu3.inst                64                       # Number of read requests responded to by this memory
system.physmem.num_reads::cpu3.data             63159                       # Number of read requests responded to by this memory
system.physmem.num_reads::cpu4.inst                89                       # Number of read requests responded to by this memory
system.physmem.num_reads::cpu4.data             59054                       # Number of read requests responded to by this memory
system.physmem.num_reads::total                241945                       # Number of read requests responded to by this memory
system.physmem.num_writes::writebacks            2769                       # Number of write requests responded to by this memory
system.physmem.num_writes::total                 2769                       # Number of write requests responded to by this memory
system.physmem.bw_read::cpu0.inst              330395                       # Total read bandwidth from this memory (bytes/s)
system.physmem.bw_read::cpu0.data              260937                       # Total read bandwidth from this memory (bytes/s)
system.physmem.bw_read::cpu1.inst              118266                       # Total read bandwidth from this memory (bytes/s)
system.physmem.bw_read::cpu1.data            56291053                       # Total read bandwidth from this memory (bytes/s)
system.physmem.bw_read::cpu2.inst               34729                       # Total read bandwidth from this memory (bytes/s)
system.physmem.bw_read::cpu2.data            55204129                       # Total read bandwidth from this memory (bytes/s)
system.physmem.bw_read::cpu3.inst               60072                       # Total read bandwidth from this memory (bytes/s)
system.physmem.bw_read::cpu3.data            59282442                       # Total read bandwidth from this memory (bytes/s)
system.physmem.bw_read::cpu4.inst               83537                       # Total read bandwidth from this memory (bytes/s)
system.physmem.bw_read::cpu4.data            55429398                       # Total read bandwidth from this memory (bytes/s)
system.physmem.bw_read::total               227094959                       # Total read bandwidth from this memory (bytes/s)
system.physmem.bw_inst_read::cpu0.inst         330395                       # Instruction read bandwidth from this memory (bytes/s)
system.physmem.bw_inst_read::cpu1.inst         118266                       # Instruction read bandwidth from this memory (bytes/s)
system.physmem.bw_inst_read::cpu2.inst          34729                       # Instruction read bandwidth from this memory (bytes/s)
system.physmem.bw_inst_read::cpu3.inst          60072                       # Instruction read bandwidth from this memory (bytes/s)
system.physmem.bw_inst_read::cpu4.inst          83537                       # Instruction read bandwidth from this memory (bytes/s)
system.physmem.bw_inst_read::total             627000                       # Instruction read bandwidth from this memory (bytes/s)
system.physmem.bw_write::writebacks           2599045                       # Write bandwidth from this memory (bytes/s)
system.physmem.bw_write::total                2599045                       # Write bandwidth from this memory (bytes/s)
system.physmem.bw_total::writebacks           2599045                       # Total bandwidth to/from this memory (bytes/s)
system.physmem.bw_total::cpu0.inst             330395                       # Total bandwidth to/from this memory (bytes/s)
system.physmem.bw_total::cpu0.data             260937                       # Total bandwidth to/from this memory (bytes/s)
system.physmem.bw_total::cpu1.inst             118266                       # Total bandwidth to/from this memory (bytes/s)
system.physmem.bw_total::cpu1.data           56291053                       # Total bandwidth to/from this memory (bytes/s)
system.physmem.bw_total::cpu2.inst              34729                       # Total bandwidth to/from this memory (bytes/s)
system.physmem.bw_total::cpu2.data           55204129                       # Total bandwidth to/from this memory (bytes/s)
system.physmem.bw_total::cpu3.inst              60072                       # Total bandwidth to/from this memory (bytes/s)
system.physmem.bw_total::cpu3.data           59282442                       # Total bandwidth to/from this memory (bytes/s)
system.physmem.bw_total::cpu4.inst              83537                       # Total bandwidth to/from this memory (bytes/s)
system.physmem.bw_total::cpu4.data           55429398                       # Total bandwidth to/from this memory (bytes/s)
system.physmem.bw_total::total              229694004                       # Total bandwidth to/from this memory (bytes/s)
system.cpu0.branchPred.lookups               34081341                       # Number of BP lookups
system.cpu0.branchPred.condPredicted         34080438                       # Number of conditional branches predicted
system.cpu0.branchPred.condIncorrect              580                       # Number of conditional branches incorrect
system.cpu0.branchPred.BTBLookups            34079716                       # Number of BTB lookups
system.cpu0.branchPred.BTBHits               34079324                       # Number of BTB hits
system.cpu0.branchPred.BTBCorrect                   0                       # Number of correct BTB predictions (this stat may not work properly.
system.cpu0.branchPred.BTBHitPct            99.998850                       # BTB Hit Percentage
system.cpu0.branchPred.usedRAS                    292                       # Number of times the RAS was used to get a target.
system.cpu0.branchPred.RASInCorrect                55                       # Number of incorrect RAS predictions.
system.cpu0.dstage2_mmu.stage2_tlb.walker.walks            0                       # Table walker walks requested
system.cpu0.dstage2_mmu.stage2_tlb.walker.walkRequestOrigin_Requested::Data            0                       # Table walker requests started/completed, data/inst
system.cpu0.dstage2_mmu.stage2_tlb.walker.walkRequestOrigin_Requested::Inst            0                       # Table walker requests started/completed, data/inst
system.cpu0.dstage2_mmu.stage2_tlb.walker.walkRequestOrigin_Requested::total            0                       # Table walker requests started/completed, data/inst
system.cpu0.dstage2_mmu.stage2_tlb.walker.walkRequestOrigin_Completed::Data            0                       # Table walker requests started/completed, data/inst
system.cpu0.dstage2_mmu.stage2_tlb.walker.walkRequestOrigin_Completed::Inst            0                       # Table walker requests started/completed, data/inst
system.cpu0.dstage2_mmu.stage2_tlb.walker.walkRequestOrigin_Completed::total            0                       # Table walker requests started/completed, data/inst
system.cpu0.dstage2_mmu.stage2_tlb.walker.walkRequestOrigin::total            0                       # Table walker requests started/completed, data/inst
system.cpu0.dstage2_mmu.stage2_tlb.inst_hits            0                       # ITB inst hits
system.cpu0.dstage2_mmu.stage2_tlb.inst_misses            0                       # ITB inst misses
system.cpu0.dstage2_mmu.stage2_tlb.read_hits            0                       # DTB read hits
system.cpu0.dstage2_mmu.stage2_tlb.read_misses            0                       # DTB read misses
system.cpu0.dstage2_mmu.stage2_tlb.write_hits            0                       # DTB write hits
system.cpu0.dstage2_mmu.stage2_tlb.write_misses            0                       # DTB write misses
system.cpu0.dstage2_mmu.stage2_tlb.flush_tlb            0                       # Number of times complete TLB was flushed
system.cpu0.dstage2_mmu.stage2_tlb.flush_tlb_mva            0                       # Number of times TLB was flushed by MVA
system.cpu0.dstage2_mmu.stage2_tlb.flush_tlb_mva_asid            0                       # Number of times TLB was flushed by MVA & ASID
system.cpu0.dstage2_mmu.stage2_tlb.flush_tlb_asid            0                       # Number of times TLB was flushed by ASID
system.cpu0.dstage2_mmu.stage2_tlb.flush_entries            0                       # Number of entries that have been flushed from TLB
system.cpu0.dstage2_mmu.stage2_tlb.align_faults            0                       # Number of TLB faults due to alignment restrictions
system.cpu0.dstage2_mmu.stage2_tlb.prefetch_faults            0                       # Number of TLB faults due to prefetch
system.cpu0.dstage2_mmu.stage2_tlb.domain_faults            0                       # Number of TLB faults due to domain restrictions
system.cpu0.dstage2_mmu.stage2_tlb.perms_faults            0                       # Number of TLB faults due to permissions restrictions
system.cpu0.dstage2_mmu.stage2_tlb.read_accesses            0                       # DTB read accesses
system.cpu0.dstage2_mmu.stage2_tlb.write_accesses            0                       # DTB write accesses
system.cpu0.dstage2_mmu.stage2_tlb.inst_accesses            0                       # ITB inst accesses
system.cpu0.dstage2_mmu.stage2_tlb.hits             0                       # DTB hits
system.cpu0.dstage2_mmu.stage2_tlb.misses            0                       # DTB misses
system.cpu0.dstage2_mmu.stage2_tlb.accesses            0                       # DTB accesses
system.cpu0.dtb.walker.walks                        0                       # Table walker walks requested
system.cpu0.dtb.walker.walkRequestOrigin_Requested::Data            0                       # Table walker requests started/completed, data/inst
system.cpu0.dtb.walker.walkRequestOrigin_Requested::Inst            0                       # Table walker requests started/completed, data/inst
system.cpu0.dtb.walker.walkRequestOrigin_Requested::total            0                       # Table walker requests started/completed, data/inst
system.cpu0.dtb.walker.walkRequestOrigin_Completed::Data            0                       # Table walker requests started/completed, data/inst
system.cpu0.dtb.walker.walkRequestOrigin_Completed::Inst            0                       # Table walker requests started/completed, data/inst
system.cpu0.dtb.walker.walkRequestOrigin_Completed::total            0                       # Table walker requests started/completed, data/inst
system.cpu0.dtb.walker.walkRequestOrigin::total            0                       # Table walker requests started/completed, data/inst
system.cpu0.dtb.inst_hits                           0                       # ITB inst hits
system.cpu0.dtb.inst_misses                         0                       # ITB inst misses
system.cpu0.dtb.read_hits                           0                       # DTB read hits
system.cpu0.dtb.read_misses                         0                       # DTB read misses
system.cpu0.dtb.write_hits                          0                       # DTB write hits
system.cpu0.dtb.write_misses                        0                       # DTB write misses
system.cpu0.dtb.flush_tlb                           0                       # Number of times complete TLB was flushed
system.cpu0.dtb.flush_tlb_mva                       0                       # Number of times TLB was flushed by MVA
system.cpu0.dtb.flush_tlb_mva_asid                  0                       # Number of times TLB was flushed by MVA & ASID
system.cpu0.dtb.flush_tlb_asid                      0                       # Number of times TLB was flushed by ASID
system.cpu0.dtb.flush_entries                       0                       # Number of entries that have been flushed from TLB
system.cpu0.dtb.align_faults                        0                       # Number of TLB faults due to alignment restrictions
system.cpu0.dtb.prefetch_faults                     0                       # Number of TLB faults due to prefetch
system.cpu0.dtb.domain_faults                       0                       # Number of TLB faults due to domain restrictions
system.cpu0.dtb.perms_faults                        0                       # Number of TLB faults due to permissions restrictions
system.cpu0.dtb.read_accesses                       0                       # DTB read accesses
system.cpu0.dtb.write_accesses                      0                       # DTB write accesses
system.cpu0.dtb.inst_accesses                       0                       # ITB inst accesses
system.cpu0.dtb.hits                                0                       # DTB hits
system.cpu0.dtb.misses                              0                       # DTB misses
system.cpu0.dtb.accesses                            0                       # DTB accesses
system.cpu0.istage2_mmu.stage2_tlb.walker.walks            0                       # Table walker walks requested
system.cpu0.istage2_mmu.stage2_tlb.walker.walkRequestOrigin_Requested::Data            0                       # Table walker requests started/completed, data/inst
system.cpu0.istage2_mmu.stage2_tlb.walker.walkRequestOrigin_Requested::Inst            0                       # Table walker requests started/completed, data/inst
system.cpu0.istage2_mmu.stage2_tlb.walker.walkRequestOrigin_Requested::total            0                       # Table walker requests started/completed, data/inst
system.cpu0.istage2_mmu.stage2_tlb.walker.walkRequestOrigin_Completed::Data            0                       # Table walker requests started/completed, data/inst
system.cpu0.istage2_mmu.stage2_tlb.walker.walkRequestOrigin_Completed::Inst            0                       # Table walker requests started/completed, data/inst
system.cpu0.istage2_mmu.stage2_tlb.walker.walkRequestOrigin_Completed::total            0                       # Table walker requests started/completed, data/inst
system.cpu0.istage2_mmu.stage2_tlb.walker.walkRequestOrigin::total            0                       # Table walker requests started/completed, data/inst
system.cpu0.istage2_mmu.stage2_tlb.inst_hits            0                       # ITB inst hits
system.cpu0.istage2_mmu.stage2_tlb.inst_misses            0                       # ITB inst misses
system.cpu0.istage2_mmu.stage2_tlb.read_hits            0                       # DTB read hits
system.cpu0.istage2_mmu.stage2_tlb.read_misses            0                       # DTB read misses
system.cpu0.istage2_mmu.stage2_tlb.write_hits            0                       # DTB write hits
system.cpu0.istage2_mmu.stage2_tlb.write_misses            0                       # DTB write misses
system.cpu0.istage2_mmu.stage2_tlb.flush_tlb            0                       # Number of times complete TLB was flushed
system.cpu0.istage2_mmu.stage2_tlb.flush_tlb_mva            0                       # Number of times TLB was flushed by MVA
system.cpu0.istage2_mmu.stage2_tlb.flush_tlb_mva_asid            0                       # Number of times TLB was flushed by MVA & ASID
system.cpu0.istage2_mmu.stage2_tlb.flush_tlb_asid            0                       # Number of times TLB was flushed by ASID
system.cpu0.istage2_mmu.stage2_tlb.flush_entries            0                       # Number of entries that have been flushed from TLB
system.cpu0.istage2_mmu.stage2_tlb.align_faults            0                       # Number of TLB faults due to alignment restrictions
system.cpu0.istage2_mmu.stage2_tlb.prefetch_faults            0                       # Number of TLB faults due to prefetch
system.cpu0.istage2_mmu.stage2_tlb.domain_faults            0                       # Number of TLB faults due to domain restrictions
system.cpu0.istage2_mmu.stage2_tlb.perms_faults            0                       # Number of TLB faults due to permissions restrictions
system.cpu0.istage2_mmu.stage2_tlb.read_accesses            0                       # DTB read accesses
system.cpu0.istage2_mmu.stage2_tlb.write_accesses            0                       # DTB write accesses
system.cpu0.istage2_mmu.stage2_tlb.inst_accesses            0                       # ITB inst accesses
system.cpu0.istage2_mmu.stage2_tlb.hits             0                       # DTB hits
system.cpu0.istage2_mmu.stage2_tlb.misses            0                       # DTB misses
system.cpu0.istage2_mmu.stage2_tlb.accesses            0                       # DTB accesses
system.cpu0.itb.walker.walks                        0                       # Table walker walks requested
system.cpu0.itb.walker.walkRequestOrigin_Requested::Data            0                       # Table walker requests started/completed, data/inst
system.cpu0.itb.walker.walkRequestOrigin_Requested::Inst            0                       # Table walker requests started/completed, data/inst
system.cpu0.itb.walker.walkRequestOrigin_Requested::total            0                       # Table walker requests started/completed, data/inst
system.cpu0.itb.walker.walkRequestOrigin_Completed::Data            0                       # Table walker requests started/completed, data/inst
system.cpu0.itb.walker.walkRequestOrigin_Completed::Inst            0                       # Table walker requests started/completed, data/inst
system.cpu0.itb.walker.walkRequestOrigin_Completed::total            0                       # Table walker requests started/completed, data/inst
system.cpu0.itb.walker.walkRequestOrigin::total            0                       # Table walker requests started/completed, data/inst
system.cpu0.itb.inst_hits                           0                       # ITB inst hits
system.cpu0.itb.inst_misses                         0                       # ITB inst misses
system.cpu0.itb.read_hits                           0                       # DTB read hits
system.cpu0.itb.read_misses                         0                       # DTB read misses
system.cpu0.itb.write_hits                          0                       # DTB write hits
system.cpu0.itb.write_misses                        0                       # DTB write misses
system.cpu0.itb.flush_tlb                           0                       # Number of times complete TLB was flushed
system.cpu0.itb.flush_tlb_mva                       0                       # Number of times TLB was flushed by MVA
system.cpu0.itb.flush_tlb_mva_asid                  0                       # Number of times TLB was flushed by MVA & ASID
system.cpu0.itb.flush_tlb_asid                      0                       # Number of times TLB was flushed by ASID
system.cpu0.itb.flush_entries                       0                       # Number of entries that have been flushed from TLB
system.cpu0.itb.align_faults                        0                       # Number of TLB faults due to alignment restrictions
system.cpu0.itb.prefetch_faults                     0                       # Number of TLB faults due to prefetch
system.cpu0.itb.domain_faults                       0                       # Number of TLB faults due to domain restrictions
system.cpu0.itb.perms_faults                        0                       # Number of TLB faults due to permissions restrictions
system.cpu0.itb.read_accesses                       0                       # DTB read accesses
system.cpu0.itb.write_accesses                      0                       # DTB write accesses
system.cpu0.itb.inst_accesses                       0                       # ITB inst accesses
system.cpu0.itb.hits                                0                       # DTB hits
system.cpu0.itb.misses                              0                       # DTB misses
system.cpu0.itb.accesses                            0                       # DTB accesses
system.cpu0.workload.num_syscalls              435549                       # Number of system calls
system.cpu0.numCycles                        68185046                       # number of cpu cycles simulated
system.cpu0.numWorkItemsStarted                     0                       # number of work items this cpu started
system.cpu0.numWorkItemsCompleted                   0                       # number of work items this cpu completed
system.cpu0.fetch.icacheStallCycles              8262                       # Number of cycles fetch is stalled on an Icache miss
system.cpu0.fetch.Insts                     170407555                       # Number of instructions fetch has processed
system.cpu0.fetch.Branches                   34081341                       # Number of branches that fetch encountered
system.cpu0.fetch.predictedBranches          34079616                       # Number of branches that fetch has predicted taken
system.cpu0.fetch.Cycles                     68167619                       # Number of cycles fetch has run and was not squashing or blocked
system.cpu0.fetch.SquashCycles                   1485                       # Number of cycles fetch has spent squashing
system.cpu0.fetch.PendingTrapStallCycles          162                       # Number of stall cycles due to pending traps
system.cpu0.fetch.CacheLines                     1997                       # Number of cache lines fetched
system.cpu0.fetch.IcacheSquashes                  252                       # Number of outstanding Icache misses that were squashed
system.cpu0.fetch.rateDist::samples          68176785                       # Number of instructions fetched each cycle (Total)
system.cpu0.fetch.rateDist::mean             2.499559                       # Number of instructions fetched each cycle (Total)
system.cpu0.fetch.rateDist::stdev            0.501134                       # Number of instructions fetched each cycle (Total)
system.cpu0.fetch.rateDist::underflows              0      0.00%      0.00% # Number of instructions fetched each cycle (Total)
system.cpu0.fetch.rateDist::0                   12705      0.02%      0.02% # Number of instructions fetched each cycle (Total)
system.cpu0.fetch.rateDist::1                     608      0.00%      0.02% # Number of instructions fetched each cycle (Total)
system.cpu0.fetch.rateDist::2                34079109     49.99%     50.01% # Number of instructions fetched each cycle (Total)
system.cpu0.fetch.rateDist::3                34084363     49.99%    100.00% # Number of instructions fetched each cycle (Total)
system.cpu0.fetch.rateDist::overflows               0      0.00%    100.00% # Number of instructions fetched each cycle (Total)
system.cpu0.fetch.rateDist::min_value               0                       # Number of instructions fetched each cycle (Total)
system.cpu0.fetch.rateDist::max_value               3                       # Number of instructions fetched each cycle (Total)
system.cpu0.fetch.rateDist::total            68176785                       # Number of instructions fetched each cycle (Total)
system.cpu0.fetch.branchRate                 0.499836                       # Number of branch fetches per cycle
system.cpu0.fetch.rate                       2.499192                       # Number of inst fetches per cycle
system.cpu0.decode.IdleCycles                    7996                       # Number of cycles decode is idle
system.cpu0.decode.BlockedCycles                 5426                       # Number of cycles decode is blocked
system.cpu0.decode.RunCycles                 68161952                       # Number of cycles decode is running
system.cpu0.decode.UnblockCycles                  863                       # Number of cycles decode is unblocking
system.cpu0.decode.SquashCycles                   548                       # Number of cycles decode is squashing
system.cpu0.decode.BranchResolved                 364                       # Number of times decode resolved a branch
system.cpu0.decode.BranchMispred                  200                       # Number of times decode detected a branch misprediction
system.cpu0.decode.DecodedInsts             170409196                       # Number of instructions handled by decode
system.cpu0.decode.SquashedInsts                  465                       # Number of squashed instructions handled by decode
system.cpu0.rename.SquashCycles                   548                       # Number of cycles rename is squashing
system.cpu0.rename.IdleCycles                    8673                       # Number of cycles rename is idle
system.cpu0.rename.BlockCycles                    686                       # Number of cycles rename is blocking
system.cpu0.rename.serializeStallCycles          2022                       # count of cycles rename stalled for serializing inst
system.cpu0.rename.RunCycles                 68162025                       # Number of cycles rename is running
system.cpu0.rename.UnblockCycles                 2831                       # Number of cycles rename is unblocking
system.cpu0.rename.RenamedInsts             170408180                       # Number of instructions processed by rename
system.cpu0.rename.IQFullEvents                    21                       # Number of times rename has blocked due to IQ full
system.cpu0.rename.LQFullEvents                    11                       # Number of times rename has blocked due to LQ full
system.cpu0.rename.SQFullEvents                  2656                       # Number of times rename has blocked due to SQ full
system.cpu0.rename.RenamedOperands          170409779                       # Number of destination operands rename has renamed
system.cpu0.rename.RenameLookups            783882100                       # Number of register rename lookups that rename has made
system.cpu0.rename.int_rename_lookups       170413334                       # Number of integer rename lookups
system.cpu0.rename.fp_rename_lookups               16                       # Number of floating rename lookups
system.cpu0.rename.CommittedMaps            170402028                       # Number of HB maps that are committed
system.cpu0.rename.UndoneMaps                    7751                       # Number of HB maps that are undone due to squashing
system.cpu0.rename.serializingInsts                52                       # count of serializing insts renamed
system.cpu0.rename.tempSerializingInsts            51                       # count of temporary serializing insts renamed
system.cpu0.rename.skidInsts                     1243                       # count of insts added to the skid buffer
system.cpu0.memDep0.insertedLoads            68158406                       # Number of loads inserted to the mem dependence unit.
system.cpu0.memDep0.insertedStores           34081742                       # Number of stores inserted to the mem dependence unit.
system.cpu0.memDep0.conflictingLoads         34077564                       # Number of conflicting loads.
system.cpu0.memDep0.conflictingStores        34077536                       # Number of conflicting stores.
system.cpu0.iq.iqInstsAdded                 170406323                       # Number of instructions added to the IQ (excludes non-spec)
system.cpu0.iq.iqNonSpecInstsAdded                 74                       # Number of non-speculative instructions added to the IQ
system.cpu0.iq.iqInstsIssued                170403977                       # Number of instructions issued
system.cpu0.iq.iqSquashedInstsIssued              474                       # Number of squashed instructions issued
system.cpu0.iq.iqSquashedInstsExamined           5369                       # Number of squashed instructions iterated over during squash; mainly for profiling
system.cpu0.iq.iqSquashedOperandsExamined        13900                       # Number of squashed operands that are examined and possibly removed from graph
system.cpu0.iq.iqSquashedNonSpecRemoved             5                       # Number of squashed non-spec instructions that were removed
system.cpu0.iq.issued_per_cycle::samples     68176785                       # Number of insts issued each cycle
system.cpu0.iq.issued_per_cycle::mean        2.499443                       # Number of insts issued each cycle
system.cpu0.iq.issued_per_cycle::stdev       0.707965                       # Number of insts issued each cycle
system.cpu0.iq.issued_per_cycle::underflows            0      0.00%      0.00% # Number of insts issued each cycle
system.cpu0.iq.issued_per_cycle::0              13652      0.02%      0.02% # Number of insts issued each cycle
system.cpu0.iq.issued_per_cycle::1            8522548     12.50%     12.52% # Number of insts issued each cycle
system.cpu0.iq.issued_per_cycle::2           17040326     24.99%     37.52% # Number of insts issued each cycle
system.cpu0.iq.issued_per_cycle::3           42600259     62.48%    100.00% # Number of insts issued each cycle
system.cpu0.iq.issued_per_cycle::overflows            0      0.00%    100.00% # Number of insts issued each cycle
system.cpu0.iq.issued_per_cycle::min_value            0                       # Number of insts issued each cycle
system.cpu0.iq.issued_per_cycle::max_value            3                       # Number of insts issued each cycle
system.cpu0.iq.issued_per_cycle::total       68176785                       # Number of insts issued each cycle
system.cpu0.iq.fu_full::No_OpClass                  0                       # attempts to use FU when none available
system.cpu0.iq.fu_full::IntAlu                      0                       # attempts to use FU when none available
system.cpu0.iq.fu_full::IntMult                     0                       # attempts to use FU when none available
system.cpu0.iq.fu_full::IntDiv                      0                       # attempts to use FU when none available
system.cpu0.iq.fu_full::FloatAdd                    0                       # attempts to use FU when none available
system.cpu0.iq.fu_full::FloatCmp                    0                       # attempts to use FU when none available
system.cpu0.iq.fu_full::FloatCvt                    0                       # attempts to use FU when none available
system.cpu0.iq.fu_full::FloatMult                   0                       # attempts to use FU when none available
system.cpu0.iq.fu_full::FloatDiv                    0                       # attempts to use FU when none available
system.cpu0.iq.fu_full::FloatSqrt                   0                       # attempts to use FU when none available
system.cpu0.iq.fu_full::SimdAdd                     0                       # attempts to use FU when none available
system.cpu0.iq.fu_full::SimdAddAcc                  0                       # attempts to use FU when none available
system.cpu0.iq.fu_full::SimdAlu                     0                       # attempts to use FU when none available
system.cpu0.iq.fu_full::SimdCmp                     0                       # attempts to use FU when none available
system.cpu0.iq.fu_full::SimdCvt                     0                       # attempts to use FU when none available
system.cpu0.iq.fu_full::SimdMisc                    0                       # attempts to use FU when none available
system.cpu0.iq.fu_full::SimdMult                    0                       # attempts to use FU when none available
system.cpu0.iq.fu_full::SimdMultAcc                 0                       # attempts to use FU when none available
system.cpu0.iq.fu_full::SimdShift                   0                       # attempts to use FU when none available
system.cpu0.iq.fu_full::SimdShiftAcc                0                       # attempts to use FU when none available
system.cpu0.iq.fu_full::SimdSqrt                    0                       # attempts to use FU when none available
system.cpu0.iq.fu_full::SimdFloatAdd                0                       # attempts to use FU when none available
system.cpu0.iq.fu_full::SimdFloatAlu                0                       # attempts to use FU when none available
system.cpu0.iq.fu_full::SimdFloatCmp                0                       # attempts to use FU when none available
system.cpu0.iq.fu_full::SimdFloatCvt                0                       # attempts to use FU when none available
system.cpu0.iq.fu_full::SimdFloatDiv                0                       # attempts to use FU when none available
system.cpu0.iq.fu_full::SimdFloatMisc               0                       # attempts to use FU when none available
system.cpu0.iq.fu_full::SimdFloatMult               0                       # attempts to use FU when none available
system.cpu0.iq.fu_full::SimdFloatMultAcc            0                       # attempts to use FU when none available
system.cpu0.iq.fu_full::SimdFloatSqrt               0                       # attempts to use FU when none available
system.cpu0.iq.fu_full::MemRead                     0                       # attempts to use FU when none available
system.cpu0.iq.fu_full::MemWrite                    0                       # attempts to use FU when none available
system.cpu0.iq.fu_full::IprAccess                   0                       # attempts to use FU when none available
system.cpu0.iq.fu_full::InstPrefetch                0                       # attempts to use FU when none available
system.cpu0.iq.FU_type_0::No_OpClass                0      0.00%      0.00% # Type of FU issued
system.cpu0.iq.FU_type_0::IntAlu             68164627     40.00%     40.00% # Type of FU issued
system.cpu0.iq.FU_type_0::IntMult                   6      0.00%     40.00% # Type of FU issued
system.cpu0.iq.FU_type_0::IntDiv                    0      0.00%     40.00% # Type of FU issued
system.cpu0.iq.FU_type_0::FloatAdd                  0      0.00%     40.00% # Type of FU issued
system.cpu0.iq.FU_type_0::FloatCmp                  0      0.00%     40.00% # Type of FU issued
system.cpu0.iq.FU_type_0::FloatCvt                  0      0.00%     40.00% # Type of FU issued
system.cpu0.iq.FU_type_0::FloatMult                 0      0.00%     40.00% # Type of FU issued
system.cpu0.iq.FU_type_0::FloatDiv                  0      0.00%     40.00% # Type of FU issued
system.cpu0.iq.FU_type_0::FloatSqrt                 0      0.00%     40.00% # Type of FU issued
system.cpu0.iq.FU_type_0::SimdAdd                   0      0.00%     40.00% # Type of FU issued
system.cpu0.iq.FU_type_0::SimdAddAcc                0      0.00%     40.00% # Type of FU issued
system.cpu0.iq.FU_type_0::SimdAlu                   0      0.00%     40.00% # Type of FU issued
system.cpu0.iq.FU_type_0::SimdCmp                   0      0.00%     40.00% # Type of FU issued
system.cpu0.iq.FU_type_0::SimdCvt                   0      0.00%     40.00% # Type of FU issued
system.cpu0.iq.FU_type_0::SimdMisc                  0      0.00%     40.00% # Type of FU issued
system.cpu0.iq.FU_type_0::SimdMult                  0      0.00%     40.00% # Type of FU issued
system.cpu0.iq.FU_type_0::SimdMultAcc               0      0.00%     40.00% # Type of FU issued
system.cpu0.iq.FU_type_0::SimdShift                 0      0.00%     40.00% # Type of FU issued
system.cpu0.iq.FU_type_0::SimdShiftAcc              0      0.00%     40.00% # Type of FU issued
system.cpu0.iq.FU_type_0::SimdSqrt                  0      0.00%     40.00% # Type of FU issued
system.cpu0.iq.FU_type_0::SimdFloatAdd              0      0.00%     40.00% # Type of FU issued
system.cpu0.iq.FU_type_0::SimdFloatAlu              0      0.00%     40.00% # Type of FU issued
system.cpu0.iq.FU_type_0::SimdFloatCmp              0      0.00%     40.00% # Type of FU issued
system.cpu0.iq.FU_type_0::SimdFloatCvt              0      0.00%     40.00% # Type of FU issued
system.cpu0.iq.FU_type_0::SimdFloatDiv              0      0.00%     40.00% # Type of FU issued
system.cpu0.iq.FU_type_0::SimdFloatMisc             3      0.00%     40.00% # Type of FU issued
system.cpu0.iq.FU_type_0::SimdFloatMult             0      0.00%     40.00% # Type of FU issued
system.cpu0.iq.FU_type_0::SimdFloatMultAcc            0      0.00%     40.00% # Type of FU issued
system.cpu0.iq.FU_type_0::SimdFloatSqrt             0      0.00%     40.00% # Type of FU issued
system.cpu0.iq.FU_type_0::MemRead            68157896     40.00%     80.00% # Type of FU issued
system.cpu0.iq.FU_type_0::MemWrite           34081445     20.00%    100.00% # Type of FU issued
system.cpu0.iq.FU_type_0::IprAccess                 0      0.00%    100.00% # Type of FU issued
system.cpu0.iq.FU_type_0::InstPrefetch              0      0.00%    100.00% # Type of FU issued
system.cpu0.iq.FU_type_0::total             170403977                       # Type of FU issued
system.cpu0.iq.rate                          2.499140                       # Inst issue rate
system.cpu0.iq.fu_busy_cnt                          0                       # FU busy when requested
system.cpu0.iq.fu_busy_rate                         0                       # FU busy rate (busy events/executed inst)
system.cpu0.iq.int_inst_queue_reads         408985181                       # Number of integer instruction queue reads
system.cpu0.iq.int_inst_queue_writes        170411896                       # Number of integer instruction queue writes
system.cpu0.iq.int_inst_queue_wakeup_accesses    170403150                       # Number of integer instruction queue wakeup accesses
system.cpu0.iq.fp_inst_queue_reads                 32                       # Number of floating instruction queue reads
system.cpu0.iq.fp_inst_queue_writes                16                       # Number of floating instruction queue writes
system.cpu0.iq.fp_inst_queue_wakeup_accesses           16                       # Number of floating instruction queue wakeup accesses
system.cpu0.iq.int_alu_accesses             170403961                       # Number of integer alu accesses
system.cpu0.iq.fp_alu_accesses                     16                       # Number of floating point alu accesses
system.cpu0.iew.lsq.thread0.forwLoads        34077824                       # Number of loads that had data forwarded from stores
system.cpu0.iew.lsq.thread0.invAddrLoads            0                       # Number of loads ignored due to an invalid address
system.cpu0.iew.lsq.thread0.squashedLoads         1572                       # Number of loads squashed
system.cpu0.iew.lsq.thread0.ignoredResponses            3                       # Number of memory responses ignored because the instruction is squashed
system.cpu0.iew.lsq.thread0.memOrderViolation          146                       # Number of memory ordering violations
system.cpu0.iew.lsq.thread0.squashedStores          592                       # Number of stores squashed
system.cpu0.iew.lsq.thread0.invAddrSwpfs            0                       # Number of software prefetches ignored due to an invalid address
system.cpu0.iew.lsq.thread0.blockedLoads            0                       # Number of blocked loads due to partial load-store forwarding
system.cpu0.iew.lsq.thread0.rescheduledLoads            4                       # Number of loads that were rescheduled
system.cpu0.iew.lsq.thread0.cacheBlocked            0                       # Number of times an access to memory failed due to the cache being blocked
system.cpu0.iew.iewIdleCycles                       0                       # Number of cycles IEW is idle
system.cpu0.iew.iewSquashCycles                   548                       # Number of cycles IEW is squashing
system.cpu0.iew.iewBlockCycles                    545                       # Number of cycles IEW is blocking
system.cpu0.iew.iewUnblockCycles                  138                       # Number of cycles IEW is unblocking
system.cpu0.iew.iewDispatchedInsts          170406416                       # Number of instructions dispatched to IQ
system.cpu0.iew.iewDispSquashedInsts              247                       # Number of squashed instructions skipped by dispatch
system.cpu0.iew.iewDispLoadInsts             68158406                       # Number of dispatched load instructions
system.cpu0.iew.iewDispStoreInsts            34081742                       # Number of dispatched store instructions
system.cpu0.iew.iewDispNonSpecInsts                48                       # Number of dispatched non-speculative instructions
system.cpu0.iew.iewIQFullEvents                    12                       # Number of times the IQ has become full, causing a stall
system.cpu0.iew.iewLSQFullEvents                    0                       # Number of times the LSQ has become full, causing a stall
system.cpu0.iew.memOrderViolationEvents           146                       # Number of memory order violations
system.cpu0.iew.predictedTakenIncorrect           112                       # Number of branches that were predicted taken incorrectly
system.cpu0.iew.predictedNotTakenIncorrect          301                       # Number of branches that were predicted not taken incorrectly
system.cpu0.iew.branchMispredicts                 413                       # Number of branch mispredicts detected at execute
system.cpu0.iew.iewExecutedInsts            170403465                       # Number of executed instructions
system.cpu0.iew.iewExecLoadInsts             68157778                       # Number of load instructions executed
system.cpu0.iew.iewExecSquashedInsts              512                       # Number of squashed instructions skipped in execute
system.cpu0.iew.exec_swp                            0                       # number of swp insts executed
system.cpu0.iew.exec_nop                           19                       # number of nop insts executed
system.cpu0.iew.exec_refs                   102239047                       # number of memory reference insts executed
system.cpu0.iew.exec_branches                34079742                       # Number of branches executed
system.cpu0.iew.exec_forward_branches             832                       # Number of forward branches executed
system.cpu0.iew.exec_backward_branches       34078598                       # Number of backward branches executed
system.cpu0.iew.exec_taken_forward_branches          311                       # Number of forward branches executed that is taken
system.cpu0.iew.exec_nottaken_forward_branches          521                       # Number of forward branches executed that is not taken
system.cpu0.iew.exec_taken_backward_branches     34078358                       # Number of backward branches executed that is taken
system.cpu0.iew.exec_nottaken_backward_branches          240                       # Number of backward branches executed that is not taken
system.cpu0.iew.exec_stores                  34081269                       # Number of stores executed
system.cpu0.iew.exec_rate                    2.499133                       # Inst execution rate
system.cpu0.iew.wb_sent                     170403244                       # cumulative count of insts sent to commit
system.cpu0.iew.wb_count                    170403166                       # cumulative count of insts written-back
system.cpu0.iew.wb_producers                102239752                       # num instructions producing a value
system.cpu0.iew.wb_consumers                102249711                       # num instructions consuming a value
system.cpu0.iew.wb_penalized                        0                       # number of instrctions required to write to 'other' IQ
system.cpu0.iew.wb_rate                      2.499128                       # insts written-back per cycle
system.cpu0.iew.wb_fanout                    0.999903                       # average fanout of values written-back
system.cpu0.iew.wb_penalized_rate                   0                       # fraction of instructions written-back that wrote to 'other' IQ
system.cpu0.commit.commitSquashedInsts           5387                       # The number of squashed insts skipped by commit
system.cpu0.commit.commitNonSpecStalls             69                       # The number of times commit has been forced to stall to communicate backwards
system.cpu0.commit.branchMispredicts              386                       # The number of times a branch was mispredicted
system.cpu0.commit.committed_per_cycle::samples     68175829                       # Number of insts commited each cycle
system.cpu0.commit.committed_per_cycle::mean     2.499435                       # Number of insts commited each cycle
system.cpu0.commit.committed_per_cycle::stdev     1.581385                       # Number of insts commited each cycle
system.cpu0.commit.committed_per_cycle::underflows            0      0.00%      0.00% # Number of insts commited each cycle
system.cpu0.commit.committed_per_cycle::0        14613      0.02%      0.02% # Number of insts commited each cycle
system.cpu0.commit.committed_per_cycle::1     34080147     49.99%     50.01% # Number of insts commited each cycle
system.cpu0.commit.committed_per_cycle::2         1266      0.00%     50.01% # Number of insts commited each cycle
system.cpu0.commit.committed_per_cycle::3      8521263     12.50%     62.51% # Number of insts commited each cycle
system.cpu0.commit.committed_per_cycle::4     17038784     24.99%     87.50% # Number of insts commited each cycle
system.cpu0.commit.committed_per_cycle::5      8519435     12.50%    100.00% # Number of insts commited each cycle
system.cpu0.commit.committed_per_cycle::6           76      0.00%    100.00% # Number of insts commited each cycle
system.cpu0.commit.committed_per_cycle::7          167      0.00%    100.00% # Number of insts commited each cycle
system.cpu0.commit.committed_per_cycle::8           78      0.00%    100.00% # Number of insts commited each cycle
system.cpu0.commit.committed_per_cycle::overflows            0      0.00%    100.00% # Number of insts commited each cycle
system.cpu0.commit.committed_per_cycle::min_value            0                       # Number of insts commited each cycle
system.cpu0.commit.committed_per_cycle::max_value            8                       # Number of insts commited each cycle
system.cpu0.commit.committed_per_cycle::total     68175829                       # Number of insts commited each cycle
system.cpu0.commit.committedInsts           170397643                       # Number of instructions committed
system.cpu0.commit.committedOps             170401028                       # Number of ops (including micro ops) committed
system.cpu0.commit.swp_count                        0                       # Number of s/w prefetches committed
system.cpu0.commit.refs                     102237984                       # Number of memory references committed
system.cpu0.commit.loads                     68156834                       # Number of loads committed
system.cpu0.commit.membars                         26                       # Number of memory barriers committed
system.cpu0.commit.branches                  34079335                       # Number of branches committed
system.cpu0.commit.fp_insts                        16                       # Number of committed floating point instructions.
system.cpu0.commit.int_insts                136322083                       # Number of committed integer instructions.
system.cpu0.commit.function_calls                 154                       # Number of function calls committed.
system.cpu0.commit.op_class_0::No_OpClass            0      0.00%      0.00% # Class of committed instruction
system.cpu0.commit.op_class_0::IntAlu        68163035     40.00%     40.00% # Class of committed instruction
system.cpu0.commit.op_class_0::IntMult              6      0.00%     40.00% # Class of committed instruction
system.cpu0.commit.op_class_0::IntDiv               0      0.00%     40.00% # Class of committed instruction
system.cpu0.commit.op_class_0::FloatAdd             0      0.00%     40.00% # Class of committed instruction
system.cpu0.commit.op_class_0::FloatCmp             0      0.00%     40.00% # Class of committed instruction
system.cpu0.commit.op_class_0::FloatCvt             0      0.00%     40.00% # Class of committed instruction
system.cpu0.commit.op_class_0::FloatMult            0      0.00%     40.00% # Class of committed instruction
system.cpu0.commit.op_class_0::FloatDiv             0      0.00%     40.00% # Class of committed instruction
system.cpu0.commit.op_class_0::FloatSqrt            0      0.00%     40.00% # Class of committed instruction
system.cpu0.commit.op_class_0::SimdAdd              0      0.00%     40.00% # Class of committed instruction
system.cpu0.commit.op_class_0::SimdAddAcc            0      0.00%     40.00% # Class of committed instruction
system.cpu0.commit.op_class_0::SimdAlu              0      0.00%     40.00% # Class of committed instruction
system.cpu0.commit.op_class_0::SimdCmp              0      0.00%     40.00% # Class of committed instruction
system.cpu0.commit.op_class_0::SimdCvt              0      0.00%     40.00% # Class of committed instruction
system.cpu0.commit.op_class_0::SimdMisc             0      0.00%     40.00% # Class of committed instruction
system.cpu0.commit.op_class_0::SimdMult             0      0.00%     40.00% # Class of committed instruction
system.cpu0.commit.op_class_0::SimdMultAcc            0      0.00%     40.00% # Class of committed instruction
system.cpu0.commit.op_class_0::SimdShift            0      0.00%     40.00% # Class of committed instruction
system.cpu0.commit.op_class_0::SimdShiftAcc            0      0.00%     40.00% # Class of committed instruction
system.cpu0.commit.op_class_0::SimdSqrt             0      0.00%     40.00% # Class of committed instruction
system.cpu0.commit.op_class_0::SimdFloatAdd            0      0.00%     40.00% # Class of committed instruction
system.cpu0.commit.op_class_0::SimdFloatAlu            0      0.00%     40.00% # Class of committed instruction
system.cpu0.commit.op_class_0::SimdFloatCmp            0      0.00%     40.00% # Class of committed instruction
system.cpu0.commit.op_class_0::SimdFloatCvt            0      0.00%     40.00% # Class of committed instruction
system.cpu0.commit.op_class_0::SimdFloatDiv            0      0.00%     40.00% # Class of committed instruction
system.cpu0.commit.op_class_0::SimdFloatMisc            3      0.00%     40.00% # Class of committed instruction
system.cpu0.commit.op_class_0::SimdFloatMult            0      0.00%     40.00% # Class of committed instruction
system.cpu0.commit.op_class_0::SimdFloatMultAcc            0      0.00%     40.00% # Class of committed instruction
system.cpu0.commit.op_class_0::SimdFloatSqrt            0      0.00%     40.00% # Class of committed instruction
system.cpu0.commit.op_class_0::MemRead       68156834     40.00%     80.00% # Class of committed instruction
system.cpu0.commit.op_class_0::MemWrite      34081150     20.00%    100.00% # Class of committed instruction
system.cpu0.commit.op_class_0::IprAccess            0      0.00%    100.00% # Class of committed instruction
system.cpu0.commit.op_class_0::InstPrefetch            0      0.00%    100.00% # Class of committed instruction
system.cpu0.commit.op_class_0::total        170401028                       # Class of committed instruction
system.cpu0.commit.bw_lim_events                   78                       # number cycles where commit BW limit reached
system.cpu0.rob.rob_reads                   238581957                       # The number of ROB reads
system.cpu0.rob.rob_writes                  340813790                       # The number of ROB writes
system.cpu0.timesIdled                            250                       # Number of times that the entire CPU went into an idle state and unscheduled itself
system.cpu0.idleCycles                           8261                       # Total number of cycles that the CPU has spent unscheduled due to idling
system.cpu0.committedInsts                  170397643                       # Number of Instructions Simulated
system.cpu0.committedOps                    170401028                       # Number of Ops (including micro ops) Simulated
system.cpu0.cpi                              0.400153                       # CPI: Cycles Per Instruction
system.cpu0.cpi_total                        0.400153                       # CPI: Total CPI of All Threads
system.cpu0.ipc                              2.499047                       # IPC: Instructions Per Cycle
system.cpu0.ipc_total                        2.499047                       # IPC: Total IPC of All Threads
system.cpu0.int_regfile_reads               170405982                       # number of integer regfile reads
system.cpu0.int_regfile_writes               68163707                       # number of integer regfile writes
system.cpu0.fp_regfile_reads                      656                       # number of floating regfile reads
system.cpu0.cc_regfile_reads                715682805                       # number of cc regfile reads
system.cpu0.cc_regfile_writes               102240609                       # number of cc regfile writes
system.cpu0.misc_regfile_reads              105318776                       # number of misc regfile reads
system.cpu0.misc_regfile_writes                    52                       # number of misc regfile writes
system.cpu0.dcache.tags.replacements               31                       # number of replacements
system.cpu0.dcache.tags.tagsinuse          126.214117                       # Cycle average of tags in use
system.cpu0.dcache.tags.total_refs           68158115                       # Total number of references to valid blocks.
system.cpu0.dcache.tags.sampled_refs              181                       # Sample count of references to valid blocks.
system.cpu0.dcache.tags.avg_refs         376564.171271                       # Average number of references to valid blocks.
system.cpu0.dcache.tags.warmup_cycle                0                       # Cycle when the warmup percentage was hit.
system.cpu0.dcache.tags.occ_blocks::cpu0.data   126.214117                       # Average occupied blocks per requestor
system.cpu0.dcache.tags.occ_percent::cpu0.data     0.246512                       # Average percentage of cache occupancy
system.cpu0.dcache.tags.occ_percent::total     0.246512                       # Average percentage of cache occupancy
system.cpu0.dcache.tags.occ_task_id_blocks::1024          150                       # Occupied blocks per task id
system.cpu0.dcache.tags.age_task_id_blocks_1024::0           28                       # Occupied blocks per task id
system.cpu0.dcache.tags.age_task_id_blocks_1024::4          122                       # Occupied blocks per task id
system.cpu0.dcache.tags.occ_task_id_percent::1024     0.292969                       # Percentage of cache occupancy per task id
system.cpu0.dcache.tags.tag_accesses        136322171                       # Number of tag accesses
system.cpu0.dcache.tags.data_accesses       136322171                       # Number of data accesses
system.cpu0.dcache.ReadReq_hits::cpu0.data     34079573                       # number of ReadReq hits
system.cpu0.dcache.ReadReq_hits::total       34079573                       # number of ReadReq hits
system.cpu0.dcache.WriteReq_hits::cpu0.data     34078687                       # number of WriteReq hits
system.cpu0.dcache.WriteReq_hits::total      34078687                       # number of WriteReq hits
system.cpu0.dcache.LoadLockedReq_hits::cpu0.data           22                       # number of LoadLockedReq hits
system.cpu0.dcache.LoadLockedReq_hits::total           22                       # number of LoadLockedReq hits
system.cpu0.dcache.StoreCondReq_hits::cpu0.data           24                       # number of StoreCondReq hits
system.cpu0.dcache.StoreCondReq_hits::total           24                       # number of StoreCondReq hits
system.cpu0.dcache.demand_hits::cpu0.data     68158260                       # number of demand (read+write) hits
system.cpu0.dcache.demand_hits::total        68158260                       # number of demand (read+write) hits
system.cpu0.dcache.overall_hits::cpu0.data     68158260                       # number of overall hits
system.cpu0.dcache.overall_hits::total       68158260                       # number of overall hits
system.cpu0.dcache.ReadReq_misses::cpu0.data          222                       # number of ReadReq misses
system.cpu0.dcache.ReadReq_misses::total          222                       # number of ReadReq misses
system.cpu0.dcache.WriteReq_misses::cpu0.data         2391                       # number of WriteReq misses
system.cpu0.dcache.WriteReq_misses::total         2391                       # number of WriteReq misses
system.cpu0.dcache.LoadLockedReq_misses::cpu0.data            3                       # number of LoadLockedReq misses
system.cpu0.dcache.LoadLockedReq_misses::total            3                       # number of LoadLockedReq misses
system.cpu0.dcache.StoreCondReq_misses::cpu0.data            1                       # number of StoreCondReq misses
system.cpu0.dcache.StoreCondReq_misses::total            1                       # number of StoreCondReq misses
system.cpu0.dcache.demand_misses::cpu0.data         2613                       # number of demand (read+write) misses
system.cpu0.dcache.demand_misses::total          2613                       # number of demand (read+write) misses
system.cpu0.dcache.overall_misses::cpu0.data         2613                       # number of overall misses
system.cpu0.dcache.overall_misses::total         2613                       # number of overall misses
system.cpu0.dcache.ReadReq_miss_latency::cpu0.data      9871489                       # number of ReadReq miss cycles
system.cpu0.dcache.ReadReq_miss_latency::total      9871489                       # number of ReadReq miss cycles
system.cpu0.dcache.WriteReq_miss_latency::cpu0.data    119937500                       # number of WriteReq miss cycles
system.cpu0.dcache.WriteReq_miss_latency::total    119937500                       # number of WriteReq miss cycles
system.cpu0.dcache.LoadLockedReq_miss_latency::cpu0.data       133500                       # number of LoadLockedReq miss cycles
system.cpu0.dcache.LoadLockedReq_miss_latency::total       133500                       # number of LoadLockedReq miss cycles
system.cpu0.dcache.StoreCondReq_miss_latency::cpu0.data         7500                       # number of StoreCondReq miss cycles
system.cpu0.dcache.StoreCondReq_miss_latency::total         7500                       # number of StoreCondReq miss cycles
system.cpu0.dcache.demand_miss_latency::cpu0.data    129808989                       # number of demand (read+write) miss cycles
system.cpu0.dcache.demand_miss_latency::total    129808989                       # number of demand (read+write) miss cycles
system.cpu0.dcache.overall_miss_latency::cpu0.data    129808989                       # number of overall miss cycles
system.cpu0.dcache.overall_miss_latency::total    129808989                       # number of overall miss cycles
system.cpu0.dcache.ReadReq_accesses::cpu0.data     34079795                       # number of ReadReq accesses(hits+misses)
system.cpu0.dcache.ReadReq_accesses::total     34079795                       # number of ReadReq accesses(hits+misses)
system.cpu0.dcache.WriteReq_accesses::cpu0.data     34081078                       # number of WriteReq accesses(hits+misses)
system.cpu0.dcache.WriteReq_accesses::total     34081078                       # number of WriteReq accesses(hits+misses)
system.cpu0.dcache.LoadLockedReq_accesses::cpu0.data           25                       # number of LoadLockedReq accesses(hits+misses)
system.cpu0.dcache.LoadLockedReq_accesses::total           25                       # number of LoadLockedReq accesses(hits+misses)
system.cpu0.dcache.StoreCondReq_accesses::cpu0.data           25                       # number of StoreCondReq accesses(hits+misses)
system.cpu0.dcache.StoreCondReq_accesses::total           25                       # number of StoreCondReq accesses(hits+misses)
system.cpu0.dcache.demand_accesses::cpu0.data     68160873                       # number of demand (read+write) accesses
system.cpu0.dcache.demand_accesses::total     68160873                       # number of demand (read+write) accesses
system.cpu0.dcache.overall_accesses::cpu0.data     68160873                       # number of overall (read+write) accesses
system.cpu0.dcache.overall_accesses::total     68160873                       # number of overall (read+write) accesses
system.cpu0.dcache.ReadReq_miss_rate::cpu0.data     0.000007                       # miss rate for ReadReq accesses
system.cpu0.dcache.ReadReq_miss_rate::total     0.000007                       # miss rate for ReadReq accesses
system.cpu0.dcache.WriteReq_miss_rate::cpu0.data     0.000070                       # miss rate for WriteReq accesses
system.cpu0.dcache.WriteReq_miss_rate::total     0.000070                       # miss rate for WriteReq accesses
system.cpu0.dcache.LoadLockedReq_miss_rate::cpu0.data     0.120000                       # miss rate for LoadLockedReq accesses
system.cpu0.dcache.LoadLockedReq_miss_rate::total     0.120000                       # miss rate for LoadLockedReq accesses
system.cpu0.dcache.StoreCondReq_miss_rate::cpu0.data     0.040000                       # miss rate for StoreCondReq accesses
system.cpu0.dcache.StoreCondReq_miss_rate::total     0.040000                       # miss rate for StoreCondReq accesses
system.cpu0.dcache.demand_miss_rate::cpu0.data     0.000038                       # miss rate for demand accesses
system.cpu0.dcache.demand_miss_rate::total     0.000038                       # miss rate for demand accesses
system.cpu0.dcache.overall_miss_rate::cpu0.data     0.000038                       # miss rate for overall accesses
system.cpu0.dcache.overall_miss_rate::total     0.000038                       # miss rate for overall accesses
system.cpu0.dcache.ReadReq_avg_miss_latency::cpu0.data 44466.166667                       # average ReadReq miss latency
system.cpu0.dcache.ReadReq_avg_miss_latency::total 44466.166667                       # average ReadReq miss latency
system.cpu0.dcache.WriteReq_avg_miss_latency::cpu0.data 50162.066081                       # average WriteReq miss latency
system.cpu0.dcache.WriteReq_avg_miss_latency::total 50162.066081                       # average WriteReq miss latency
system.cpu0.dcache.LoadLockedReq_avg_miss_latency::cpu0.data        44500                       # average LoadLockedReq miss latency
system.cpu0.dcache.LoadLockedReq_avg_miss_latency::total        44500                       # average LoadLockedReq miss latency
system.cpu0.dcache.StoreCondReq_avg_miss_latency::cpu0.data         7500                       # average StoreCondReq miss latency
system.cpu0.dcache.StoreCondReq_avg_miss_latency::total         7500                       # average StoreCondReq miss latency
system.cpu0.dcache.demand_avg_miss_latency::cpu0.data 49678.143513                       # average overall miss latency
system.cpu0.dcache.demand_avg_miss_latency::total 49678.143513                       # average overall miss latency
system.cpu0.dcache.overall_avg_miss_latency::cpu0.data 49678.143513                       # average overall miss latency
system.cpu0.dcache.overall_avg_miss_latency::total 49678.143513                       # average overall miss latency
system.cpu0.dcache.blocked_cycles::no_mshrs            0                       # number of cycles access was blocked
system.cpu0.dcache.blocked_cycles::no_targets            0                       # number of cycles access was blocked
system.cpu0.dcache.blocked::no_mshrs                0                       # number of cycles access was blocked
system.cpu0.dcache.blocked::no_targets              0                       # number of cycles access was blocked
system.cpu0.dcache.avg_blocked_cycles::no_mshrs          nan                       # average number of cycles each access was blocked
system.cpu0.dcache.avg_blocked_cycles::no_targets          nan                       # average number of cycles each access was blocked
system.cpu0.dcache.fast_writes                      0                       # number of fast writes performed
system.cpu0.dcache.cache_copies                     0                       # number of cache copies performed
system.cpu0.dcache.writebacks::writebacks           12                       # number of writebacks
system.cpu0.dcache.writebacks::total               12                       # number of writebacks
system.cpu0.dcache.ReadReq_mshr_hits::cpu0.data           81                       # number of ReadReq MSHR hits
system.cpu0.dcache.ReadReq_mshr_hits::total           81                       # number of ReadReq MSHR hits
system.cpu0.dcache.WriteReq_mshr_hits::cpu0.data         2203                       # number of WriteReq MSHR hits
system.cpu0.dcache.WriteReq_mshr_hits::total         2203                       # number of WriteReq MSHR hits
system.cpu0.dcache.LoadLockedReq_mshr_hits::cpu0.data            3                       # number of LoadLockedReq MSHR hits
system.cpu0.dcache.LoadLockedReq_mshr_hits::total            3                       # number of LoadLockedReq MSHR hits
system.cpu0.dcache.demand_mshr_hits::cpu0.data         2284                       # number of demand (read+write) MSHR hits
system.cpu0.dcache.demand_mshr_hits::total         2284                       # number of demand (read+write) MSHR hits
system.cpu0.dcache.overall_mshr_hits::cpu0.data         2284                       # number of overall MSHR hits
system.cpu0.dcache.overall_mshr_hits::total         2284                       # number of overall MSHR hits
system.cpu0.dcache.ReadReq_mshr_misses::cpu0.data          141                       # number of ReadReq MSHR misses
system.cpu0.dcache.ReadReq_mshr_misses::total          141                       # number of ReadReq MSHR misses
system.cpu0.dcache.WriteReq_mshr_misses::cpu0.data          188                       # number of WriteReq MSHR misses
system.cpu0.dcache.WriteReq_mshr_misses::total          188                       # number of WriteReq MSHR misses
system.cpu0.dcache.StoreCondReq_mshr_misses::cpu0.data            1                       # number of StoreCondReq MSHR misses
system.cpu0.dcache.StoreCondReq_mshr_misses::total            1                       # number of StoreCondReq MSHR misses
system.cpu0.dcache.demand_mshr_misses::cpu0.data          329                       # number of demand (read+write) MSHR misses
system.cpu0.dcache.demand_mshr_misses::total          329                       # number of demand (read+write) MSHR misses
system.cpu0.dcache.overall_mshr_misses::cpu0.data          329                       # number of overall MSHR misses
system.cpu0.dcache.overall_mshr_misses::total          329                       # number of overall MSHR misses
system.cpu0.dcache.ReadReq_mshr_miss_latency::cpu0.data      6146507                       # number of ReadReq MSHR miss cycles
system.cpu0.dcache.ReadReq_mshr_miss_latency::total      6146507                       # number of ReadReq MSHR miss cycles
system.cpu0.dcache.WriteReq_mshr_miss_latency::cpu0.data     10244500                       # number of WriteReq MSHR miss cycles
system.cpu0.dcache.WriteReq_mshr_miss_latency::total     10244500                       # number of WriteReq MSHR miss cycles
system.cpu0.dcache.StoreCondReq_mshr_miss_latency::cpu0.data         4500                       # number of StoreCondReq MSHR miss cycles
system.cpu0.dcache.StoreCondReq_mshr_miss_latency::total         4500                       # number of StoreCondReq MSHR miss cycles
system.cpu0.dcache.demand_mshr_miss_latency::cpu0.data     16391007                       # number of demand (read+write) MSHR miss cycles
system.cpu0.dcache.demand_mshr_miss_latency::total     16391007                       # number of demand (read+write) MSHR miss cycles
system.cpu0.dcache.overall_mshr_miss_latency::cpu0.data     16391007                       # number of overall MSHR miss cycles
system.cpu0.dcache.overall_mshr_miss_latency::total     16391007                       # number of overall MSHR miss cycles
system.cpu0.dcache.ReadReq_mshr_miss_rate::cpu0.data     0.000004                       # mshr miss rate for ReadReq accesses
system.cpu0.dcache.ReadReq_mshr_miss_rate::total     0.000004                       # mshr miss rate for ReadReq accesses
system.cpu0.dcache.WriteReq_mshr_miss_rate::cpu0.data     0.000006                       # mshr miss rate for WriteReq accesses
system.cpu0.dcache.WriteReq_mshr_miss_rate::total     0.000006                       # mshr miss rate for WriteReq accesses
system.cpu0.dcache.StoreCondReq_mshr_miss_rate::cpu0.data     0.040000                       # mshr miss rate for StoreCondReq accesses
system.cpu0.dcache.StoreCondReq_mshr_miss_rate::total     0.040000                       # mshr miss rate for StoreCondReq accesses
system.cpu0.dcache.demand_mshr_miss_rate::cpu0.data     0.000005                       # mshr miss rate for demand accesses
system.cpu0.dcache.demand_mshr_miss_rate::total     0.000005                       # mshr miss rate for demand accesses
system.cpu0.dcache.overall_mshr_miss_rate::cpu0.data     0.000005                       # mshr miss rate for overall accesses
system.cpu0.dcache.overall_mshr_miss_rate::total     0.000005                       # mshr miss rate for overall accesses
system.cpu0.dcache.ReadReq_avg_mshr_miss_latency::cpu0.data 43592.248227                       # average ReadReq mshr miss latency
system.cpu0.dcache.ReadReq_avg_mshr_miss_latency::total 43592.248227                       # average ReadReq mshr miss latency
system.cpu0.dcache.WriteReq_avg_mshr_miss_latency::cpu0.data 54492.021277                       # average WriteReq mshr miss latency
system.cpu0.dcache.WriteReq_avg_mshr_miss_latency::total 54492.021277                       # average WriteReq mshr miss latency
system.cpu0.dcache.StoreCondReq_avg_mshr_miss_latency::cpu0.data         4500                       # average StoreCondReq mshr miss latency
system.cpu0.dcache.StoreCondReq_avg_mshr_miss_latency::total         4500                       # average StoreCondReq mshr miss latency
system.cpu0.dcache.demand_avg_mshr_miss_latency::cpu0.data 49820.689970                       # average overall mshr miss latency
system.cpu0.dcache.demand_avg_mshr_miss_latency::total 49820.689970                       # average overall mshr miss latency
system.cpu0.dcache.overall_avg_mshr_miss_latency::cpu0.data 49820.689970                       # average overall mshr miss latency
system.cpu0.dcache.overall_avg_mshr_miss_latency::total 49820.689970                       # average overall mshr miss latency
system.cpu0.dcache.no_allocate_misses               0                       # Number of misses that were no-allocate
system.cpu0.icache.tags.replacements               64                       # number of replacements
system.cpu0.icache.tags.tagsinuse          287.953845                       # Cycle average of tags in use
system.cpu0.icache.tags.total_refs               1554                       # Total number of references to valid blocks.
system.cpu0.icache.tags.sampled_refs              382                       # Sample count of references to valid blocks.
system.cpu0.icache.tags.avg_refs             4.068063                       # Average number of references to valid blocks.
system.cpu0.icache.tags.warmup_cycle                0                       # Cycle when the warmup percentage was hit.
system.cpu0.icache.tags.occ_blocks::cpu0.inst   287.953845                       # Average occupied blocks per requestor
system.cpu0.icache.tags.occ_percent::cpu0.inst     0.562410                       # Average percentage of cache occupancy
system.cpu0.icache.tags.occ_percent::total     0.562410                       # Average percentage of cache occupancy
system.cpu0.icache.tags.occ_task_id_blocks::1024          318                       # Occupied blocks per task id
system.cpu0.icache.tags.age_task_id_blocks_1024::0           42                       # Occupied blocks per task id
system.cpu0.icache.tags.age_task_id_blocks_1024::4          276                       # Occupied blocks per task id
system.cpu0.icache.tags.occ_task_id_percent::1024     0.621094                       # Percentage of cache occupancy per task id
system.cpu0.icache.tags.tag_accesses             4376                       # Number of tag accesses
system.cpu0.icache.tags.data_accesses            4376                       # Number of data accesses
system.cpu0.icache.ReadReq_hits::cpu0.inst         1554                       # number of ReadReq hits
system.cpu0.icache.ReadReq_hits::total           1554                       # number of ReadReq hits
system.cpu0.icache.demand_hits::cpu0.inst         1554                       # number of demand (read+write) hits
system.cpu0.icache.demand_hits::total            1554                       # number of demand (read+write) hits
system.cpu0.icache.overall_hits::cpu0.inst         1554                       # number of overall hits
system.cpu0.icache.overall_hits::total           1554                       # number of overall hits
system.cpu0.icache.ReadReq_misses::cpu0.inst          443                       # number of ReadReq misses
system.cpu0.icache.ReadReq_misses::total          443                       # number of ReadReq misses
system.cpu0.icache.demand_misses::cpu0.inst          443                       # number of demand (read+write) misses
system.cpu0.icache.demand_misses::total           443                       # number of demand (read+write) misses
system.cpu0.icache.overall_misses::cpu0.inst          443                       # number of overall misses
system.cpu0.icache.overall_misses::total          443                       # number of overall misses
system.cpu0.icache.ReadReq_miss_latency::cpu0.inst     23165498                       # number of ReadReq miss cycles
system.cpu0.icache.ReadReq_miss_latency::total     23165498                       # number of ReadReq miss cycles
system.cpu0.icache.demand_miss_latency::cpu0.inst     23165498                       # number of demand (read+write) miss cycles
system.cpu0.icache.demand_miss_latency::total     23165498                       # number of demand (read+write) miss cycles
system.cpu0.icache.overall_miss_latency::cpu0.inst     23165498                       # number of overall miss cycles
system.cpu0.icache.overall_miss_latency::total     23165498                       # number of overall miss cycles
system.cpu0.icache.ReadReq_accesses::cpu0.inst         1997                       # number of ReadReq accesses(hits+misses)
system.cpu0.icache.ReadReq_accesses::total         1997                       # number of ReadReq accesses(hits+misses)
system.cpu0.icache.demand_accesses::cpu0.inst         1997                       # number of demand (read+write) accesses
system.cpu0.icache.demand_accesses::total         1997                       # number of demand (read+write) accesses
system.cpu0.icache.overall_accesses::cpu0.inst         1997                       # number of overall (read+write) accesses
system.cpu0.icache.overall_accesses::total         1997                       # number of overall (read+write) accesses
[...]
system.l2.demand_mshr_miss_rate::cpu4.data     0.570741                       # mshr miss rate for demand accesses
system.l2.demand_mshr_miss_rate::total       0.567779                       # mshr miss rate for demand accesses
system.l2.overall_mshr_miss_rate::cpu0.inst     0.921466                       # mshr miss rate for overall accesses
system.l2.overall_mshr_miss_rate::cpu0.data     0.876972                       # mshr miss rate for overall accesses
system.l2.overall_mshr_miss_rate::cpu1.inst     0.051724                       # mshr miss rate for overall accesses
system.l2.overall_mshr_miss_rate::cpu1.data     0.577921                       # mshr miss rate for overall accesses
system.l2.overall_mshr_miss_rate::cpu2.inst     0.014937                       # mshr miss rate for overall accesses
system.l2.overall_mshr_miss_rate::cpu2.data     0.586170                       # mshr miss rate for overall accesses
system.l2.overall_mshr_miss_rate::cpu3.inst     0.027165                       # mshr miss rate for overall accesses
system.l2.overall_mshr_miss_rate::cpu3.data     0.582583                       # mshr miss rate for overall accesses
system.l2.overall_mshr_miss_rate::cpu4.inst     0.041052                       # mshr miss rate for overall accesses
system.l2.overall_mshr_miss_rate::cpu4.data     0.570741                       # mshr miss rate for overall accesses
system.l2.overall_mshr_miss_rate::total      0.567779                       # mshr miss rate for overall accesses
system.l2.ReadReq_avg_mshr_miss_latency::cpu0.inst 41022.727273                       # average ReadReq mshr miss latency
system.l2.ReadReq_avg_mshr_miss_latency::cpu0.data 42244.680851                       # average ReadReq mshr miss latency
system.l2.ReadReq_avg_mshr_miss_latency::cpu1.inst 40936.507937                       # average ReadReq mshr miss latency
system.l2.ReadReq_avg_mshr_miss_latency::cpu1.data 40517.118896                       # average ReadReq mshr miss latency
system.l2.ReadReq_avg_mshr_miss_latency::cpu2.inst 40756.756757                       # average ReadReq mshr miss latency
system.l2.ReadReq_avg_mshr_miss_latency::cpu2.data 40519.667418                       # average ReadReq mshr miss latency
system.l2.ReadReq_avg_mshr_miss_latency::cpu3.inst 40742.187500                       # average ReadReq mshr miss latency
system.l2.ReadReq_avg_mshr_miss_latency::cpu3.data 40516.504372                       # average ReadReq mshr miss latency
system.l2.ReadReq_avg_mshr_miss_latency::cpu4.inst 40775.280899                       # average ReadReq mshr miss latency
system.l2.ReadReq_avg_mshr_miss_latency::cpu4.data 40519.474731                       # average ReadReq mshr miss latency
system.l2.ReadReq_avg_mshr_miss_latency::total 40519.992884                       # average ReadReq mshr miss latency
system.l2.UpgradeReq_avg_mshr_miss_latency::cpu0.data        44000                       # average UpgradeReq mshr miss latency
system.l2.UpgradeReq_avg_mshr_miss_latency::cpu1.data 40705.160743                       # average UpgradeReq mshr miss latency
system.l2.UpgradeReq_avg_mshr_miss_latency::cpu2.data 40707.245885                       # average UpgradeReq mshr miss latency
system.l2.UpgradeReq_avg_mshr_miss_latency::cpu3.data 40703.122596                       # average UpgradeReq mshr miss latency
system.l2.UpgradeReq_avg_mshr_miss_latency::cpu4.data 40732.271090                       # average UpgradeReq mshr miss latency
system.l2.UpgradeReq_avg_mshr_miss_latency::total 40712.246165                       # average UpgradeReq mshr miss latency
system.l2.SCUpgradeReq_avg_mshr_miss_latency::cpu1.data 40547.268953                       # average SCUpgradeReq mshr miss latency
system.l2.SCUpgradeReq_avg_mshr_miss_latency::cpu2.data 40547.552428                       # average SCUpgradeReq mshr miss latency
system.l2.SCUpgradeReq_avg_mshr_miss_latency::cpu3.data 40548.768730                       # average SCUpgradeReq mshr miss latency
system.l2.SCUpgradeReq_avg_mshr_miss_latency::cpu4.data 40539.780364                       # average SCUpgradeReq mshr miss latency
system.l2.SCUpgradeReq_avg_mshr_miss_latency::total 40545.862980                       # average SCUpgradeReq mshr miss latency
system.l2.ReadExReq_avg_mshr_miss_latency::cpu0.data 40779.891304                       # average ReadExReq mshr miss latency
system.l2.ReadExReq_avg_mshr_miss_latency::cpu1.data 40623.239437                       # average ReadExReq mshr miss latency
system.l2.ReadExReq_avg_mshr_miss_latency::cpu2.data 40676.348548                       # average ReadExReq mshr miss latency
system.l2.ReadExReq_avg_mshr_miss_latency::cpu3.data 40645.631068                       # average ReadExReq mshr miss latency
system.l2.ReadExReq_avg_mshr_miss_latency::cpu4.data 40620.498615                       # average ReadExReq mshr miss latency
system.l2.ReadExReq_avg_mshr_miss_latency::total 40649.836601                       # average ReadExReq mshr miss latency
system.l2.demand_avg_mshr_miss_latency::cpu0.inst 41022.727273                       # average overall mshr miss latency
system.l2.demand_avg_mshr_miss_latency::cpu0.data 41275.179856                       # average overall mshr miss latency
system.l2.demand_avg_mshr_miss_latency::cpu1.inst 40936.507937                       # average overall mshr miss latency
system.l2.demand_avg_mshr_miss_latency::cpu1.data 40518.375242                       # average overall mshr miss latency
system.l2.demand_avg_mshr_miss_latency::cpu2.inst 40756.756757                       # average overall mshr miss latency
system.l2.demand_avg_mshr_miss_latency::cpu2.data 40521.593498                       # average overall mshr miss latency
system.l2.demand_avg_mshr_miss_latency::cpu3.inst 40742.187500                       # average overall mshr miss latency
system.l2.demand_avg_mshr_miss_latency::cpu3.data 40517.978435                       # average overall mshr miss latency
system.l2.demand_avg_mshr_miss_latency::cpu4.inst 40775.280899                       # average overall mshr miss latency
system.l2.demand_avg_mshr_miss_latency::cpu4.data 40520.709859                       # average overall mshr miss latency
system.l2.demand_avg_mshr_miss_latency::total 40521.635082                       # average overall mshr miss latency
system.l2.overall_avg_mshr_miss_latency::cpu0.inst 41022.727273                       # average overall mshr miss latency
system.l2.overall_avg_mshr_miss_latency::cpu0.data 41275.179856                       # average overall mshr miss latency
system.l2.overall_avg_mshr_miss_latency::cpu1.inst 40936.507937                       # average overall mshr miss latency
system.l2.overall_avg_mshr_miss_latency::cpu1.data 40518.375242                       # average overall mshr miss latency
system.l2.overall_avg_mshr_miss_latency::cpu2.inst 40756.756757                       # average overall mshr miss latency
system.l2.overall_avg_mshr_miss_latency::cpu2.data 40521.593498                       # average overall mshr miss latency
system.l2.overall_avg_mshr_miss_latency::cpu3.inst 40742.187500                       # average overall mshr miss latency
system.l2.overall_avg_mshr_miss_latency::cpu3.data 40517.978435                       # average overall mshr miss latency
system.l2.overall_avg_mshr_miss_latency::cpu4.inst 40775.280899                       # average overall mshr miss latency
system.l2.overall_avg_mshr_miss_latency::cpu4.data 40520.709859                       # average overall mshr miss latency
system.l2.overall_avg_mshr_miss_latency::total 40521.635082                       # average overall mshr miss latency
system.l2.no_allocate_misses                        0                       # Number of misses that were no-allocate
system.membus.trans_dist::ReadReq              238885                       # Transaction distribution
system.membus.trans_dist::ReadResp             238885                       # Transaction distribution
system.membus.trans_dist::Writeback              2769                       # Transaction distribution
system.membus.trans_dist::UpgradeReq           782265                       # Transaction distribution
system.membus.trans_dist::SCUpgradeReq         647747                       # Transaction distribution
system.membus.trans_dist::UpgradeResp          633652                       # Transaction distribution
system.membus.trans_dist::SCUpgradeFailReq          132                       # Transaction distribution
system.membus.trans_dist::ReadExReq              9848                       # Transaction distribution
system.membus.trans_dist::ReadExResp             3060                       # Transaction distribution
system.membus.pkt_count_system.l2.mem_side::system.physmem.port      2557243                       # Packet count per connected master and slave (bytes)
system.membus.pkt_count::total                2557243                       # Packet count per connected master and slave (bytes)
system.membus.pkt_size_system.l2.mem_side::system.physmem.port     15661696                       # Cumulative packet size per connected master and slave (bytes)
system.membus.pkt_size::total                15661696                       # Cumulative packet size per connected master and slave (bytes)
system.membus.snoops                           803280                       # Total snoops (count)
system.membus.snoop_fanout::samples           1692604                       # Request fanout histogram
system.membus.snoop_fanout::mean                    0                       # Request fanout histogram
system.membus.snoop_fanout::stdev                   0                       # Request fanout histogram
system.membus.snoop_fanout::underflows              0      0.00%      0.00% # Request fanout histogram
system.membus.snoop_fanout::0                 1692604    100.00%    100.00% # Request fanout histogram
system.membus.snoop_fanout::1                       0      0.00%    100.00% # Request fanout histogram
system.membus.snoop_fanout::overflows               0      0.00%    100.00% # Request fanout histogram
system.membus.snoop_fanout::min_value               0                       # Request fanout histogram
system.membus.snoop_fanout::max_value               0                       # Request fanout histogram
system.membus.snoop_fanout::total             1692604                       # Request fanout histogram
system.membus.reqLayer0.occupancy          1308275575                       # Layer occupancy (ticks)
system.membus.reqLayer0.utilization               1.9                       # Layer utilization (%)
system.membus.respLayer1.occupancy         2238661492                       # Layer occupancy (ticks)
system.membus.respLayer1.utilization              3.3                       # Layer utilization (%)
system.tol2bus.trans_dist::ReadReq            3199224                       # Transaction distribution
system.tol2bus.trans_dist::ReadResp           3198513                       # Transaction distribution
system.tol2bus.trans_dist::ReadRespWithInvalidate          711                       # Transaction distribution
system.tol2bus.trans_dist::Writeback             9609                       # Transaction distribution
system.tol2bus.trans_dist::UpgradeReq          782271                       # Transaction distribution
system.tol2bus.trans_dist::SCUpgradeReq        647753                       # Transaction distribution
system.tol2bus.trans_dist::UpgradeResp        1430024                       # Transaction distribution
system.tol2bus.trans_dist::SCUpgradeFailReq        77131                       # Transaction distribution
system.tol2bus.trans_dist::UpgradeFailResp        77131                       # Transaction distribution
system.tol2bus.trans_dist::ReadExReq            32809                       # Transaction distribution
system.tol2bus.trans_dist::ReadExResp           32809                       # Transaction distribution
system.tol2bus.pkt_count_system.cpu0.icache.mem_side::system.l2.cpu_side          764                       # Packet count per connected master and slave (bytes)
system.tol2bus.pkt_count_system.cpu0.dcache.mem_side::system.l2.cpu_side          661                       # Packet count per connected master and slave (bytes)
system.tol2bus.pkt_count_system.cpu1.icache.mem_side::system.l2.cpu_side         4872                       # Packet count per connected master and slave (bytes)
system.tol2bus.pkt_count_system.cpu1.dcache.mem_side::system.l2.cpu_side      1460179                       # Packet count per connected master and slave (bytes)
system.tol2bus.pkt_count_system.cpu2.icache.mem_side::system.l2.cpu_side         4954                       # Packet count per connected master and slave (bytes)
system.tol2bus.pkt_count_system.cpu2.dcache.mem_side::system.l2.cpu_side      1447190                       # Packet count per connected master and slave (bytes)
system.tol2bus.pkt_count_system.cpu3.icache.mem_side::system.l2.cpu_side         4712                       # Packet count per connected master and slave (bytes)
system.tol2bus.pkt_count_system.cpu3.dcache.mem_side::system.l2.cpu_side      1479803                       # Packet count per connected master and slave (bytes)
system.tol2bus.pkt_count_system.cpu4.icache.mem_side::system.l2.cpu_side         4336                       # Packet count per connected master and slave (bytes)
system.tol2bus.pkt_count_system.cpu4.dcache.mem_side::system.l2.cpu_side      1401115                       # Packet count per connected master and slave (bytes)
system.tol2bus.pkt_count::total               5808586                       # Packet count per connected master and slave (bytes)
system.tol2bus.pkt_size_system.cpu0.icache.mem_side::system.l2.cpu_side        24448                       # Cumulative packet size per connected master and slave (bytes)
system.tol2bus.pkt_size_system.cpu0.dcache.mem_side::system.l2.cpu_side        21056                       # Cumulative packet size per connected master and slave (bytes)
system.tol2bus.pkt_size_system.cpu1.icache.mem_side::system.l2.cpu_side       155904                       # Cumulative packet size per connected master and slave (bytes)
system.tol2bus.pkt_size_system.cpu1.dcache.mem_side::system.l2.cpu_side      6800192                       # Cumulative packet size per connected master and slave (bytes)
system.tol2bus.pkt_size_system.cpu2.icache.mem_side::system.l2.cpu_side       158528                       # Cumulative packet size per connected master and slave (bytes)
system.tol2bus.pkt_size_system.cpu2.dcache.mem_side::system.l2.cpu_side      6569664                       # Cumulative packet size per connected master and slave (bytes)
system.tol2bus.pkt_size_system.cpu3.icache.mem_side::system.l2.cpu_side       150784                       # Cumulative packet size per connected master and slave (bytes)
system.tol2bus.pkt_size_system.cpu3.dcache.mem_side::system.l2.cpu_side      7079296                       # Cumulative packet size per connected master and slave (bytes)
system.tol2bus.pkt_size_system.cpu4.icache.mem_side::system.l2.cpu_side       138752                       # Cumulative packet size per connected master and slave (bytes)
system.tol2bus.pkt_size_system.cpu4.dcache.mem_side::system.l2.cpu_side      6788352                       # Cumulative packet size per connected master and slave (bytes)
system.tol2bus.pkt_size::total               27886976                       # Cumulative packet size per connected master and slave (bytes)
system.tol2bus.snoops                         3679399                       # Total snoops (count)
system.tol2bus.snoop_fanout::samples          4748797                       # Request fanout histogram
system.tol2bus.snoop_fanout::mean                   9                       # Request fanout histogram
system.tol2bus.snoop_fanout::stdev                  0                       # Request fanout histogram
system.tol2bus.snoop_fanout::underflows             0      0.00%      0.00% # Request fanout histogram
system.tol2bus.snoop_fanout::0                      0      0.00%      0.00% # Request fanout histogram
system.tol2bus.snoop_fanout::1                      0      0.00%      0.00% # Request fanout histogram
system.tol2bus.snoop_fanout::2                      0      0.00%      0.00% # Request fanout histogram
system.tol2bus.snoop_fanout::3                      0      0.00%      0.00% # Request fanout histogram
system.tol2bus.snoop_fanout::4                      0      0.00%      0.00% # Request fanout histogram
system.tol2bus.snoop_fanout::5                      0      0.00%      0.00% # Request fanout histogram
system.tol2bus.snoop_fanout::6                      0      0.00%      0.00% # Request fanout histogram
system.tol2bus.snoop_fanout::7                      0      0.00%      0.00% # Request fanout histogram
system.tol2bus.snoop_fanout::8                      0      0.00%      0.00% # Request fanout histogram
system.tol2bus.snoop_fanout::9                4748797    100.00%    100.00% # Request fanout histogram
system.tol2bus.snoop_fanout::10                     0      0.00%    100.00% # Request fanout histogram
system.tol2bus.snoop_fanout::overflows              0      0.00%    100.00% # Request fanout histogram
system.tol2bus.snoop_fanout::min_value              9                       # Request fanout histogram
system.tol2bus.snoop_fanout::max_value              9                       # Request fanout histogram
system.tol2bus.snoop_fanout::total            4748797                       # Request fanout histogram
system.tol2bus.reqLayer0.occupancy         2428536370                       # Layer occupancy (ticks)
system.tol2bus.reqLayer0.utilization              3.6                       # Layer utilization (%)
system.tol2bus.respLayer0.occupancy            573998                       # Layer occupancy (ticks)
system.tol2bus.respLayer0.utilization             0.0                       # Layer utilization (%)
system.tol2bus.respLayer1.occupancy            493493                       # Layer occupancy (ticks)
system.tol2bus.respLayer1.utilization             0.0                       # Layer utilization (%)
system.tol2bus.respLayer4.occupancy           3671945                       # Layer occupancy (ticks)
system.tol2bus.respLayer4.utilization             0.0                       # Layer utilization (%)
system.tol2bus.respLayer5.occupancy        1544171336                       # Layer occupancy (ticks)
system.tol2bus.respLayer5.utilization             2.3                       # Layer utilization (%)
system.tol2bus.respLayer8.occupancy           3760365                       # Layer occupancy (ticks)
system.tol2bus.respLayer8.utilization             0.0                       # Layer utilization (%)
system.tol2bus.respLayer9.occupancy        1539876304                       # Layer occupancy (ticks)
system.tol2bus.respLayer9.utilization             2.3                       # Layer utilization (%)
system.tol2bus.respLayer12.occupancy          3573370                       # Layer occupancy (ticks)
system.tol2bus.respLayer12.utilization            0.0                       # Layer utilization (%)
system.tol2bus.respLayer13.occupancy       1563949047                       # Layer occupancy (ticks)
system.tol2bus.respLayer13.utilization            2.3                       # Layer utilization (%)
system.tol2bus.respLayer16.occupancy          3283389                       # Layer occupancy (ticks)
system.tol2bus.respLayer16.utilization            0.0                       # Layer utilization (%)
system.tol2bus.respLayer17.occupancy       1438551694                       # Layer occupancy (ticks)
system.tol2bus.respLayer17.utilization            2.1                       # Layer utilization (%)

---------- End Simulation Statistics   ----------
