
---------- Begin Simulation Statistics ----------
sim_seconds                                  0.068675                       # Number of seconds simulated
sim_ticks                                 68674893000                       # Number of ticks simulated
final_tick                                68674893000                       # Number of ticks from beginning of simulation (restored from checkpoints and never reset)
sim_freq                                 1000000000000                       # Frequency of simulated ticks
host_inst_rate                                 155524                       # Simulator instruction rate (inst/s)
host_op_rate                                   159168                       # Simulator op (including micro ops) rate (op/s)
host_tick_rate                               25135929                       # Simulator tick rate (ticks/s)
host_mem_usage                                 742628                       # Number of bytes of host memory used
host_seconds                                  2732.14                       # Real time elapsed on the host
sim_insts                                   424912931                       # Number of instructions simulated
sim_ops                                     434869611                       # Number of ops (including micro ops) simulated
system.voltage_domain.voltage                       1                       # Voltage in Volts
system.clk_domain.clock                          1000                       # Clock period in ticks
system.physmem.bytes_read::cpu0.inst            22208                       # Number of bytes read from this memory
system.physmem.bytes_read::cpu0.data            18496                       # Number of bytes read from this memory
system.physmem.bytes_read::cpu1.inst             9216                       # Number of bytes read from this memory
system.physmem.bytes_read::cpu1.data          1338048                       # Number of bytes read from this memory
system.physmem.bytes_read::cpu2.inst             1344                       # Number of bytes read from this memory
system.physmem.bytes_read::cpu2.data          1422016                       # Number of bytes read from this memory
system.physmem.bytes_read::cpu3.inst              960                       # Number of bytes read from this memory
system.physmem.bytes_read::cpu3.data          1326144                       # Number of bytes read from this memory
system.physmem.bytes_read::cpu4.inst              448                       # Number of bytes read from this memory
system.physmem.bytes_read::cpu4.data          1419264                       # Number of bytes read from this memory
system.physmem.bytes_read::cpu5.inst             3712                       # Number of bytes read from this memory
system.physmem.bytes_read::cpu5.data          1250112                       # Number of bytes read from this memory
system.physmem.bytes_read::cpu6.inst              832                       # Number of bytes read from this memory
system.physmem.bytes_read::cpu6.data          1302272                       # Number of bytes read from this memory
system.physmem.bytes_read::cpu7.inst             3968                       # Number of bytes read from this memory
system.physmem.bytes_read::cpu7.data          1197184                       # Number of bytes read from this memory
system.physmem.bytes_read::cpu8.inst             5952                       # Number of bytes read from this memory
system.physmem.bytes_read::cpu8.data          1214912                       # Number of bytes read from this memory
system.physmem.bytes_read::total             10537088                       # Number of bytes read from this memory
system.physmem.bytes_inst_read::cpu0.inst        22208                       # Number of instructions bytes read from this memory
system.physmem.bytes_inst_read::cpu1.inst         9216                       # Number of instructions bytes read from this memory
system.physmem.bytes_inst_read::cpu2.inst         1344                       # Number of instructions bytes read from this memory
system.physmem.bytes_inst_read::cpu3.inst          960                       # Number of instructions bytes read from this memory
system.physmem.bytes_inst_read::cpu4.inst          448                       # Number of instructions bytes read from this memory
system.physmem.bytes_inst_read::cpu5.inst         3712                       # Number of instructions bytes read from this memory
system.physmem.bytes_inst_read::cpu6.inst          832                       # Number of instructions bytes read from this memory
system.physmem.bytes_inst_read::cpu7.inst         3968                       # Number of instructions bytes read from this memory
system.physmem.bytes_inst_read::cpu8.inst         5952                       # Number of instructions bytes read from this memory
system.physmem.bytes_inst_read::total           48640                       # Number of instructions bytes read from this memory
system.physmem.bytes_written::writebacks       112320                       # Number of bytes written to this memory
system.physmem.bytes_written::total            112320                       # Number of bytes written to this memory
system.physmem.num_reads::cpu0.inst               347                       # Number of read requests responded to by this memory
system.physmem.num_reads::cpu0.data               289                       # Number of read requests responded to by this memory
system.physmem.num_reads::cpu1.inst               144                       # Number of read requests responded to by this memory
system.physmem.num_reads::cpu1.data             20907                       # Number of read requests responded to by this memory
system.physmem.num_reads::cpu2.inst                21                       # Number of read requests responded to by this memory
system.physmem.num_reads::cpu2.data             22219                       # Number of read requests responded to by this memory
system.physmem.num_reads::cpu3.inst                15                       # Number of read requests responded to by this memory
system.physmem.num_reads::cpu3.data             20721                       # Number of read requests responded to by this memory
system.physmem.num_reads::cpu4.inst                 7                       # Number of read requests responded to by this memory
system.physmem.num_reads::cpu4.data             22176                       # Number of read requests responded to by this memory
system.physmem.num_reads::cpu5.inst                58                       # Number of read requests responded to by this memory
system.physmem.num_reads::cpu5.data             19533                       # Number of read requests responded to by this memory
system.physmem.num_reads::cpu6.inst                13                       # Number of read requests responded to by this memory
system.physmem.num_reads::cpu6.data             20348                       # Number of read requests responded to by this memory
system.physmem.num_reads::cpu7.inst                62                       # Number of read requests responded to by this memory
system.physmem.num_reads::cpu7.data             18706                       # Number of read requests responded to by this memory
system.physmem.num_reads::cpu8.inst                93                       # Number of read requests responded to by this memory
system.physmem.num_reads::cpu8.data             18983                       # Number of read requests responded to by this memory
system.physmem.num_reads::total                164642                       # Number of read requests responded to by this memory
system.physmem.num_writes::writebacks            1755                       # Number of write requests responded to by this memory
system.physmem.num_writes::total                 1755                       # Number of write requests responded to by this memory
system.physmem.bw_read::cpu0.inst              323379                       # Total read bandwidth from this memory (bytes/s)
system.physmem.bw_read::cpu0.data              269327                       # Total read bandwidth from this memory (bytes/s)
system.physmem.bw_read::cpu1.inst              134198                       # Total read bandwidth from this memory (bytes/s)
system.physmem.bw_read::cpu1.data            19483802                       # Total read bandwidth from this memory (bytes/s)
system.physmem.bw_read::cpu2.inst               19570                       # Total read bandwidth from this memory (bytes/s)
system.physmem.bw_read::cpu2.data            20706490                       # Total read bandwidth from this memory (bytes/s)
system.physmem.bw_read::cpu3.inst               13979                       # Total read bandwidth from this memory (bytes/s)
system.physmem.bw_read::cpu3.data            19310463                       # Total read bandwidth from this memory (bytes/s)
system.physmem.bw_read::cpu4.inst                6523                       # Total read bandwidth from this memory (bytes/s)
system.physmem.bw_read::cpu4.data            20666417                       # Total read bandwidth from this memory (bytes/s)
system.physmem.bw_read::cpu5.inst               54052                       # Total read bandwidth from this memory (bytes/s)
system.physmem.bw_read::cpu5.data            18203334                       # Total read bandwidth from this memory (bytes/s)
system.physmem.bw_read::cpu6.inst               12115                       # Total read bandwidth from this memory (bytes/s)
system.physmem.bw_read::cpu6.data            18962854                       # Total read bandwidth from this memory (bytes/s)
system.physmem.bw_read::cpu7.inst               57779                       # Total read bandwidth from this memory (bytes/s)
system.physmem.bw_read::cpu7.data            17432630                       # Total read bandwidth from this memory (bytes/s)
system.physmem.bw_read::cpu8.inst               86669                       # Total read bandwidth from this memory (bytes/s)
system.physmem.bw_read::cpu8.data            17690774                       # Total read bandwidth from this memory (bytes/s)
system.physmem.bw_read::total               153434356                       # Total read bandwidth from this memory (bytes/s)
system.physmem.bw_inst_read::cpu0.inst         323379                       # Instruction read bandwidth from this memory (bytes/s)
system.physmem.bw_inst_read::cpu1.inst         134198                       # Instruction read bandwidth from this memory (bytes/s)
system.physmem.bw_inst_read::cpu2.inst          19570                       # Instruction read bandwidth from this memory (bytes/s)
system.physmem.bw_inst_read::cpu3.inst          13979                       # Instruction read bandwidth from this memory (bytes/s)
system.physmem.bw_inst_read::cpu4.inst           6523                       # Instruction read bandwidth from this memory (bytes/s)
system.physmem.bw_inst_read::cpu5.inst          54052                       # Instruction read bandwidth from this memory (bytes/s)
system.physmem.bw_inst_read::cpu6.inst          12115                       # Instruction read bandwidth from this memory (bytes/s)
system.physmem.bw_inst_read::cpu7.inst          57779                       # Instruction read bandwidth from this memory (bytes/s)
system.physmem.bw_inst_read::cpu8.inst          86669                       # Instruction read bandwidth from this memory (bytes/s)
system.physmem.bw_inst_read::total             708265                       # Instruction read bandwidth from this memory (bytes/s)
system.physmem.bw_write::writebacks           1635532                       # Write bandwidth from this memory (bytes/s)
system.physmem.bw_write::total                1635532                       # Write bandwidth from this memory (bytes/s)
system.physmem.bw_total::writebacks           1635532                       # Total bandwidth to/from this memory (bytes/s)
system.physmem.bw_total::cpu0.inst             323379                       # Total bandwidth to/from this memory (bytes/s)
system.physmem.bw_total::cpu0.data             269327                       # Total bandwidth to/from this memory (bytes/s)
system.physmem.bw_total::cpu1.inst             134198                       # Total bandwidth to/from this memory (bytes/s)
system.physmem.bw_total::cpu1.data           19483802                       # Total bandwidth to/from this memory (bytes/s)
system.physmem.bw_total::cpu2.inst              19570                       # Total bandwidth to/from this memory (bytes/s)
system.physmem.bw_total::cpu2.data           20706490                       # Total bandwidth to/from this memory (bytes/s)
system.physmem.bw_total::cpu3.inst              13979                       # Total bandwidth to/from this memory (bytes/s)
system.physmem.bw_total::cpu3.data           19310463                       # Total bandwidth to/from this memory (bytes/s)
system.physmem.bw_total::cpu4.inst               6523                       # Total bandwidth to/from this memory (bytes/s)
system.physmem.bw_total::cpu4.data           20666417                       # Total bandwidth to/from this memory (bytes/s)
system.physmem.bw_total::cpu5.inst              54052                       # Total bandwidth to/from this memory (bytes/s)
system.physmem.bw_total::cpu5.data           18203334                       # Total bandwidth to/from this memory (bytes/s)
system.physmem.bw_total::cpu6.inst              12115                       # Total bandwidth to/from this memory (bytes/s)
system.physmem.bw_total::cpu6.data           18962854                       # Total bandwidth to/from this memory (bytes/s)
system.physmem.bw_total::cpu7.inst              57779                       # Total bandwidth to/from this memory (bytes/s)
system.physmem.bw_total::cpu7.data           17432630                       # Total bandwidth to/from this memory (bytes/s)
system.physmem.bw_total::cpu8.inst              86669                       # Total bandwidth to/from this memory (bytes/s)
system.physmem.bw_total::cpu8.data           17690774                       # Total bandwidth to/from this memory (bytes/s)
system.physmem.bw_total::total              155069888                       # Total bandwidth to/from this memory (bytes/s)
system.cpu0.branchPred.lookups               34325870                       # Number of BP lookups
system.cpu0.branchPred.condPredicted         34324572                       # Number of conditional branches predicted
system.cpu0.branchPred.condIncorrect              780                       # Number of conditional branches incorrect
system.cpu0.branchPred.BTBLookups            34323432                       # Number of BTB lookups
system.cpu0.branchPred.BTBHits               34322968                       # Number of BTB hits
system.cpu0.branchPred.BTBCorrect                   0                       # Number of correct BTB predictions (this stat may not work properly.
system.cpu0.branchPred.BTBHitPct            99.998648                       # BTB Hit Percentage
system.cpu0.branchPred.usedRAS                    465                       # Number of times the RAS was used to get a target.
system.cpu0.branchPred.RASInCorrect                55                       # Number of incorrect RAS predictions.
system.cpu0.dstage2_mmu.stage2_tlb.walker.walks            0                       # Table walker walks requested
system.cpu0.dstage2_mmu.stage2_tlb.walker.walkRequestOrigin_Requested::Data            0                       # Table walker requests started/completed, data/inst
system.cpu0.dstage2_mmu.stage2_tlb.walker.walkRequestOrigin_Requested::Inst            0                       # Table walker requests started/completed, data/inst
system.cpu0.dstage2_mmu.stage2_tlb.walker.walkRequestOrigin_Requested::total            0                       # Table walker requests started/completed, data/inst
system.cpu0.dstage2_mmu.stage2_tlb.walker.walkRequestOrigin_Completed::Data            0                       # Table walker requests started/completed, data/inst
system.cpu0.dstage2_mmu.stage2_tlb.walker.walkRequestOrigin_Completed::Inst            0                       # Table walker requests started/completed, data/inst
system.cpu0.dstage2_mmu.stage2_tlb.walker.walkRequestOrigin_Completed::total            0                       # Table walker requests started/completed, data/inst
system.cpu0.dstage2_mmu.stage2_tlb.walker.walkRequestOrigin::total            0                       # Table walker requests started/completed, data/inst
system.cpu0.dstage2_mmu.stage2_tlb.inst_hits            0                       # ITB inst hits
system.cpu0.dstage2_mmu.stage2_tlb.inst_misses            0                       # ITB inst misses
system.cpu0.dstage2_mmu.stage2_tlb.read_hits            0                       # DTB read hits
system.cpu0.dstage2_mmu.stage2_tlb.read_misses            0                       # DTB read misses
system.cpu0.dstage2_mmu.stage2_tlb.write_hits            0                       # DTB write hits
system.cpu0.dstage2_mmu.stage2_tlb.write_misses            0                       # DTB write misses
system.cpu0.dstage2_mmu.stage2_tlb.flush_tlb            0                       # Number of times complete TLB was flushed
system.cpu0.dstage2_mmu.stage2_tlb.flush_tlb_mva            0                       # Number of times TLB was flushed by MVA
system.cpu0.dstage2_mmu.stage2_tlb.flush_tlb_mva_asid            0                       # Number of times TLB was flushed by MVA & ASID
system.cpu0.dstage2_mmu.stage2_tlb.flush_tlb_asid            0                       # Number of times TLB was flushed by ASID
system.cpu0.dstage2_mmu.stage2_tlb.flush_entries            0                       # Number of entries that have been flushed from TLB
system.cpu0.dstage2_mmu.stage2_tlb.align_faults            0                       # Number of TLB faults due to alignment restrictions
system.cpu0.dstage2_mmu.stage2_tlb.prefetch_faults            0                       # Number of TLB faults due to prefetch
system.cpu0.dstage2_mmu.stage2_tlb.domain_faults            0                       # Number of TLB faults due to domain restrictions
system.cpu0.dstage2_mmu.stage2_tlb.perms_faults            0                       # Number of TLB faults due to permissions restrictions
system.cpu0.dstage2_mmu.stage2_tlb.read_accesses            0                       # DTB read accesses
system.cpu0.dstage2_mmu.stage2_tlb.write_accesses            0                       # DTB write accesses
system.cpu0.dstage2_mmu.stage2_tlb.inst_accesses            0                       # ITB inst accesses
system.cpu0.dstage2_mmu.stage2_tlb.hits             0                       # DTB hits
system.cpu0.dstage2_mmu.stage2_tlb.misses            0                       # DTB misses
system.cpu0.dstage2_mmu.stage2_tlb.accesses            0                       # DTB accesses
system.cpu0.dtb.walker.walks                        0                       # Table walker walks requested
system.cpu0.dtb.walker.walkRequestOrigin_Requested::Data            0                       # Table walker requests started/completed, data/inst
system.cpu0.dtb.walker.walkRequestOrigin_Requested::Inst            0                       # Table walker requests started/completed, data/inst
system.cpu0.dtb.walker.walkRequestOrigin_Requested::total            0                       # Table walker requests started/completed, data/inst
system.cpu0.dtb.walker.walkRequestOrigin_Completed::Data            0                       # Table walker requests started/completed, data/inst
system.cpu0.dtb.walker.walkRequestOrigin_Completed::Inst            0                       # Table walker requests started/completed, data/inst
system.cpu0.dtb.walker.walkRequestOrigin_Completed::total            0                       # Table walker requests started/completed, data/inst
system.cpu0.dtb.walker.walkRequestOrigin::total            0                       # Table walker requests started/completed, data/inst
system.cpu0.dtb.inst_hits                           0                       # ITB inst hits
system.cpu0.dtb.inst_misses                         0                       # ITB inst misses
system.cpu0.dtb.read_hits                           0                       # DTB read hits
system.cpu0.dtb.read_misses                         0                       # DTB read misses
system.cpu0.dtb.write_hits                          0                       # DTB write hits
system.cpu0.dtb.write_misses                        0                       # DTB write misses
system.cpu0.dtb.flush_tlb                           0                       # Number of times complete TLB was flushed
system.cpu0.dtb.flush_tlb_mva                       0                       # Number of times TLB was flushed by MVA
system.cpu0.dtb.flush_tlb_mva_asid                  0                       # Number of times TLB was flushed by MVA & ASID
system.cpu0.dtb.flush_tlb_asid                      0                       # Number of times TLB was flushed by ASID
system.cpu0.dtb.flush_entries                       0                       # Number of entries that have been flushed from TLB
system.cpu0.dtb.align_faults                        0                       # Number of TLB faults due to alignment restrictions
system.cpu0.dtb.prefetch_faults                     0                       # Number of TLB faults due to prefetch
system.cpu0.dtb.domain_faults                       0                       # Number of TLB faults due to domain restrictions
system.cpu0.dtb.perms_faults                        0                       # Number of TLB faults due to permissions restrictions
system.cpu0.dtb.read_accesses                       0                       # DTB read accesses
system.cpu0.dtb.write_accesses                      0                       # DTB write accesses
system.cpu0.dtb.inst_accesses                       0                       # ITB inst accesses
system.cpu0.dtb.hits                                0                       # DTB hits
system.cpu0.dtb.misses                              0                       # DTB misses
system.cpu0.dtb.accesses                            0                       # DTB accesses
system.cpu0.istage2_mmu.stage2_tlb.walker.walks            0                       # Table walker walks requested
system.cpu0.istage2_mmu.stage2_tlb.walker.walkRequestOrigin_Requested::Data            0                       # Table walker requests started/completed, data/inst
system.cpu0.istage2_mmu.stage2_tlb.walker.walkRequestOrigin_Requested::Inst            0                       # Table walker requests started/completed, data/inst
system.cpu0.istage2_mmu.stage2_tlb.walker.walkRequestOrigin_Requested::total            0                       # Table walker requests started/completed, data/inst
system.cpu0.istage2_mmu.stage2_tlb.walker.walkRequestOrigin_Completed::Data            0                       # Table walker requests started/completed, data/inst
system.cpu0.istage2_mmu.stage2_tlb.walker.walkRequestOrigin_Completed::Inst            0                       # Table walker requests started/completed, data/inst
system.cpu0.istage2_mmu.stage2_tlb.walker.walkRequestOrigin_Completed::total            0                       # Table walker requests started/completed, data/inst
system.cpu0.istage2_mmu.stage2_tlb.walker.walkRequestOrigin::total            0                       # Table walker requests started/completed, data/inst
system.cpu0.istage2_mmu.stage2_tlb.inst_hits            0                       # ITB inst hits
system.cpu0.istage2_mmu.stage2_tlb.inst_misses            0                       # ITB inst misses
system.cpu0.istage2_mmu.stage2_tlb.read_hits            0                       # DTB read hits
system.cpu0.istage2_mmu.stage2_tlb.read_misses            0                       # DTB read misses
system.cpu0.istage2_mmu.stage2_tlb.write_hits            0                       # DTB write hits
system.cpu0.istage2_mmu.stage2_tlb.write_misses            0                       # DTB write misses
system.cpu0.istage2_mmu.stage2_tlb.flush_tlb            0                       # Number of times complete TLB was flushed
system.cpu0.istage2_mmu.stage2_tlb.flush_tlb_mva            0                       # Number of times TLB was flushed by MVA
system.cpu0.istage2_mmu.stage2_tlb.flush_tlb_mva_asid            0                       # Number of times TLB was flushed by MVA & ASID
system.cpu0.istage2_mmu.stage2_tlb.flush_tlb_asid            0                       # Number of times TLB was flushed by ASID
system.cpu0.istage2_mmu.stage2_tlb.flush_entries            0                       # Number of entries that have been flushed from TLB
system.cpu0.istage2_mmu.stage2_tlb.align_faults            0                       # Number of TLB faults due to alignment restrictions
system.cpu0.istage2_mmu.stage2_tlb.prefetch_faults            0                       # Number of TLB faults due to prefetch
system.cpu0.istage2_mmu.stage2_tlb.domain_faults            0                       # Number of TLB faults due to domain restrictions
system.cpu0.istage2_mmu.stage2_tlb.perms_faults            0                       # Number of TLB faults due to permissions restrictions
system.cpu0.istage2_mmu.stage2_tlb.read_accesses            0                       # DTB read accesses
system.cpu0.istage2_mmu.stage2_tlb.write_accesses            0                       # DTB write accesses
system.cpu0.istage2_mmu.stage2_tlb.inst_accesses            0                       # ITB inst accesses
system.cpu0.istage2_mmu.stage2_tlb.hits             0                       # DTB hits
system.cpu0.istage2_mmu.stage2_tlb.misses            0                       # DTB misses
system.cpu0.istage2_mmu.stage2_tlb.accesses            0                       # DTB accesses
system.cpu0.itb.walker.walks                        0                       # Table walker walks requested
system.cpu0.itb.walker.walkRequestOrigin_Requested::Data            0                       # Table walker requests started/completed, data/inst
system.cpu0.itb.walker.walkRequestOrigin_Requested::Inst            0                       # Table walker requests started/completed, data/inst
system.cpu0.itb.walker.walkRequestOrigin_Requested::total            0                       # Table walker requests started/completed, data/inst
system.cpu0.itb.walker.walkRequestOrigin_Completed::Data            0                       # Table walker requests started/completed, data/inst
system.cpu0.itb.walker.walkRequestOrigin_Completed::Inst            0                       # Table walker requests started/completed, data/inst
system.cpu0.itb.walker.walkRequestOrigin_Completed::total            0                       # Table walker requests started/completed, data/inst
system.cpu0.itb.walker.walkRequestOrigin::total            0                       # Table walker requests started/completed, data/inst
system.cpu0.itb.inst_hits                           0                       # ITB inst hits
system.cpu0.itb.inst_misses                         0                       # ITB inst misses
system.cpu0.itb.read_hits                           0                       # DTB read hits
system.cpu0.itb.read_misses                         0                       # DTB read misses
system.cpu0.itb.write_hits                          0                       # DTB write hits
system.cpu0.itb.write_misses                        0                       # DTB write misses
system.cpu0.itb.flush_tlb                           0                       # Number of times complete TLB was flushed
system.cpu0.itb.flush_tlb_mva                       0                       # Number of times TLB was flushed by MVA
system.cpu0.itb.flush_tlb_mva_asid                  0                       # Number of times TLB was flushed by MVA & ASID
system.cpu0.itb.flush_tlb_asid                      0                       # Number of times TLB was flushed by ASID
system.cpu0.itb.flush_entries                       0                       # Number of entries that have been flushed from TLB
system.cpu0.itb.align_faults                        0                       # Number of TLB faults due to alignment restrictions
system.cpu0.itb.prefetch_faults                     0                       # Number of TLB faults due to prefetch
system.cpu0.itb.domain_faults                       0                       # Number of TLB faults due to domain restrictions
system.cpu0.itb.perms_faults                        0                       # Number of TLB faults due to permissions restrictions
system.cpu0.itb.read_accesses                       0                       # DTB read accesses
system.cpu0.itb.write_accesses                      0                       # DTB write accesses
system.cpu0.itb.inst_accesses                       0                       # ITB inst accesses
system.cpu0.itb.hits                                0                       # DTB hits
system.cpu0.itb.misses                              0                       # DTB misses
system.cpu0.itb.accesses                            0                       # DTB accesses
system.cpu0.workload.num_syscalls              113456                       # Number of system calls
system.cpu0.numCycles                        68674894                       # number of cpu cycles simulated
system.cpu0.numWorkItemsStarted                     0                       # number of work items this cpu started
system.cpu0.numWorkItemsCompleted                   0                       # number of work items this cpu completed
system.cpu0.fetch.icacheStallCycles              8889                       # Number of cycles fetch is stalled on an Icache miss
system.cpu0.fetch.Insts                     171630465                       # Number of instructions fetch has processed
system.cpu0.fetch.Branches                   34325870                       # Number of branches that fetch encountered
system.cpu0.fetch.predictedBranches          34323433                       # Number of branches that fetch has predicted taken
system.cpu0.fetch.Cycles                     68656876                       # Number of cycles fetch has run and was not squashing or blocked
system.cpu0.fetch.SquashCycles                   1905                       # Number of cycles fetch has spent squashing
system.cpu0.fetch.PendingTrapStallCycles          156                       # Number of stall cycles due to pending traps
system.cpu0.fetch.CacheLines                     2545                       # Number of cache lines fetched
system.cpu0.fetch.IcacheSquashes                  275                       # Number of outstanding Icache misses that were squashed
system.cpu0.fetch.rateDist::samples          68666873                       # Number of instructions fetched each cycle (Total)
system.cpu0.fetch.rateDist::mean             2.499545                       # Number of instructions fetched each cycle (Total)
system.cpu0.fetch.rateDist::stdev            0.501191                       # Number of instructions fetched each cycle (Total)
system.cpu0.fetch.rateDist::underflows              0      0.00%      0.00% # Number of instructions fetched each cycle (Total)
system.cpu0.fetch.rateDist::0                   13374      0.02%      0.02% # Number of instructions fetched each cycle (Total)
system.cpu0.fetch.rateDist::1                     822      0.00%      0.02% # Number of instructions fetched each cycle (Total)
system.cpu0.fetch.rateDist::2                34322938     49.98%     50.01% # Number of instructions fetched each cycle (Total)
system.cpu0.fetch.rateDist::3                34329739     49.99%    100.00% # Number of instructions fetched each cycle (Total)
system.cpu0.fetch.rateDist::overflows               0      0.00%    100.00% # Number of instructions fetched each cycle (Total)
system.cpu0.fetch.rateDist::min_value               0                       # Number of instructions fetched each cycle (Total)
system.cpu0.fetch.rateDist::max_value               3                       # Number of instructions fetched each cycle (Total)
system.cpu0.fetch.rateDist::total            68666873                       # Number of instructions fetched each cycle (Total)
system.cpu0.fetch.branchRate                 0.499831                       # Number of branch fetches per cycle
system.cpu0.fetch.rate                       2.499173                       # Number of inst fetches per cycle
system.cpu0.decode.IdleCycles                    8553                       # Number of cycles decode is idle
system.cpu0.decode.BlockedCycles                 5682                       # Number of cycles decode is blocked
system.cpu0.decode.RunCycles                 68651069                       # Number of cycles decode is running
system.cpu0.decode.UnblockCycles                  816                       # Number of cycles decode is unblocking
system.cpu0.decode.SquashCycles                   753                       # Number of cycles decode is squashing
system.cpu0.decode.BranchResolved                 494                       # Number of times decode resolved a branch
system.cpu0.decode.BranchMispred                  213                       # Number of times decode detected a branch misprediction
system.cpu0.decode.DecodedInsts             171632248                       # Number of instructions handled by decode
system.cpu0.decode.SquashedInsts                  480                       # Number of squashed instructions handled by decode
system.cpu0.rename.SquashCycles                   753                       # Number of cycles rename is squashing
system.cpu0.rename.IdleCycles                    9376                       # Number of cycles rename is idle
system.cpu0.rename.BlockCycles                    703                       # Number of cycles rename is blocking
system.cpu0.rename.serializeStallCycles          2537                       # count of cycles rename stalled for serializing inst
system.cpu0.rename.RunCycles                 68650974                       # Number of cycles rename is running
system.cpu0.rename.UnblockCycles                 2530                       # Number of cycles rename is unblocking
system.cpu0.rename.RenamedInsts             171630825                       # Number of instructions processed by rename
system.cpu0.rename.IQFullEvents                     1                       # Number of times rename has blocked due to IQ full
system.cpu0.rename.SQFullEvents                  2413                       # Number of times rename has blocked due to SQ full
system.cpu0.rename.RenamedOperands          171632710                       # Number of destination operands rename has renamed
system.cpu0.rename.RenameLookups            789506279                       # Number of register rename lookups that rename has made
system.cpu0.rename.int_rename_lookups       171636684                       # Number of integer rename lookups
system.cpu0.rename.fp_rename_lookups               16                       # Number of floating rename lookups
system.cpu0.rename.CommittedMaps            171621958                       # Number of HB maps that are committed
system.cpu0.rename.UndoneMaps                   10752                       # Number of HB maps that are undone due to squashing
system.cpu0.rename.serializingInsts                60                       # count of serializing insts renamed
system.cpu0.rename.tempSerializingInsts            59                       # count of temporary serializing insts renamed
system.cpu0.rename.skidInsts                     1112                       # count of insts added to the skid buffer
system.cpu0.memDep0.insertedLoads            68646745                       # Number of loads inserted to the mem dependence unit.
system.cpu0.memDep0.insertedStores           34325982                       # Number of stores inserted to the mem dependence unit.
system.cpu0.memDep0.conflictingLoads         34321433                       # Number of conflicting loads.
system.cpu0.memDep0.conflictingStores        34321378                       # Number of conflicting stores.
system.cpu0.iq.iqInstsAdded                 171628218                       # Number of instructions added to the IQ (excludes non-spec)
system.cpu0.iq.iqNonSpecInstsAdded                 82                       # Number of non-speculative instructions added to the IQ
system.cpu0.iq.iqInstsIssued                171625324                       # Number of instructions issued
system.cpu0.iq.iqSquashedInstsIssued              560                       # Number of squashed instructions issued
system.cpu0.iq.iqSquashedInstsExamined           7272                       # Number of squashed instructions iterated over during squash; mainly for profiling
system.cpu0.iq.iqSquashedOperandsExamined        18000                       # Number of squashed operands that are examined and possibly removed from graph
system.cpu0.iq.iqSquashedNonSpecRemoved             5                       # Number of squashed non-spec instructions that were removed
system.cpu0.iq.issued_per_cycle::samples     68666873                       # Number of insts issued each cycle
system.cpu0.iq.issued_per_cycle::mean        2.499390                       # Number of insts issued each cycle
system.cpu0.iq.issued_per_cycle::stdev       0.706782                       # Number of insts issued each cycle
system.cpu0.iq.issued_per_cycle::underflows            0      0.00%      0.00% # Number of insts issued each cycle
system.cpu0.iq.issued_per_cycle::0              15110      0.02%      0.02% # Number of insts issued each cycle
system.cpu0.iq.issued_per_cycle::1            8522260     12.41%     12.43% # Number of insts issued each cycle
system.cpu0.iq.issued_per_cycle::2           17285445     25.17%     37.61% # Number of insts issued each cycle
system.cpu0.iq.issued_per_cycle::3           42844058     62.39%    100.00% # Number of insts issued each cycle
system.cpu0.iq.issued_per_cycle::overflows            0      0.00%    100.00% # Number of insts issued each cycle
system.cpu0.iq.issued_per_cycle::min_value            0                       # Number of insts issued each cycle
system.cpu0.iq.issued_per_cycle::max_value            3                       # Number of insts issued each cycle
system.cpu0.iq.issued_per_cycle::total       68666873                       # Number of insts issued each cycle
system.cpu0.iq.fu_full::No_OpClass                  0                       # attempts to use FU when none available
system.cpu0.iq.fu_full::IntAlu                      0                       # attempts to use FU when none available
system.cpu0.iq.fu_full::IntMult                     0                       # attempts to use FU when none available
system.cpu0.iq.fu_full::IntDiv                      0                       # attempts to use FU when none available
system.cpu0.iq.fu_full::FloatAdd                    0                       # attempts to use FU when none available
system.cpu0.iq.fu_full::FloatCmp                    0                       # attempts to use FU when none available
system.cpu0.iq.fu_full::FloatCvt                    0                       # attempts to use FU when none available
system.cpu0.iq.fu_full::FloatMult                   0                       # attempts to use FU when none available
system.cpu0.iq.fu_full::FloatDiv                    0                       # attempts to use FU when none available
system.cpu0.iq.fu_full::FloatSqrt                   0                       # attempts to use FU when none available
system.cpu0.iq.fu_full::SimdAdd                     0                       # attempts to use FU when none available
system.cpu0.iq.fu_full::SimdAddAcc                  0                       # attempts to use FU when none available
system.cpu0.iq.fu_full::SimdAlu                     0                       # attempts to use FU when none available
system.cpu0.iq.fu_full::SimdCmp                     0                       # attempts to use FU when none available
system.cpu0.iq.fu_full::SimdCvt                     0                       # attempts to use FU when none available
system.cpu0.iq.fu_full::SimdMisc                    0                       # attempts to use FU when none available
system.cpu0.iq.fu_full::SimdMult                    0                       # attempts to use FU when none available
system.cpu0.iq.fu_full::SimdMultAcc                 0                       # attempts to use FU when none available
system.cpu0.iq.fu_full::SimdShift                   0                       # attempts to use FU when none available
system.cpu0.iq.fu_full::SimdShiftAcc                0                       # attempts to use FU when none available
system.cpu0.iq.fu_full::SimdSqrt                    0                       # attempts to use FU when none available
system.cpu0.iq.fu_full::SimdFloatAdd                0                       # attempts to use FU when none available
system.cpu0.iq.fu_full::SimdFloatAlu                0                       # attempts to use FU when none available
system.cpu0.iq.fu_full::SimdFloatCmp                0                       # attempts to use FU when none available
system.cpu0.iq.fu_full::SimdFloatCvt                0                       # attempts to use FU when none available
system.cpu0.iq.fu_full::SimdFloatDiv                0                       # attempts to use FU when none available
system.cpu0.iq.fu_full::SimdFloatMisc               0                       # attempts to use FU when none available
system.cpu0.iq.fu_full::SimdFloatMult               0                       # attempts to use FU when none available
system.cpu0.iq.fu_full::SimdFloatMultAcc            0                       # attempts to use FU when none available
system.cpu0.iq.fu_full::SimdFloatSqrt               0                       # attempts to use FU when none available
system.cpu0.iq.fu_full::MemRead                     0                       # attempts to use FU when none available
system.cpu0.iq.fu_full::MemWrite                    0                       # attempts to use FU when none available
system.cpu0.iq.fu_full::IprAccess                   0                       # attempts to use FU when none available
system.cpu0.iq.fu_full::InstPrefetch                0                       # attempts to use FU when none available
system.cpu0.iq.FU_type_0::No_OpClass                0      0.00%      0.00% # Type of FU issued
system.cpu0.iq.FU_type_0::IntAlu             68653568     40.00%     40.00% # Type of FU issued
system.cpu0.iq.FU_type_0::IntMult                   6      0.00%     40.00% # Type of FU issued
system.cpu0.iq.FU_type_0::IntDiv                    0      0.00%     40.00% # Type of FU issued
system.cpu0.iq.FU_type_0::FloatAdd                  0      0.00%     40.00% # Type of FU issued
system.cpu0.iq.FU_type_0::FloatCmp                  0      0.00%     40.00% # Type of FU issued
system.cpu0.iq.FU_type_0::FloatCvt                  0      0.00%     40.00% # Type of FU issued
system.cpu0.iq.FU_type_0::FloatMult                 0      0.00%     40.00% # Type of FU issued
system.cpu0.iq.FU_type_0::FloatDiv                  0      0.00%     40.00% # Type of FU issued
system.cpu0.iq.FU_type_0::FloatSqrt                 0      0.00%     40.00% # Type of FU issued
system.cpu0.iq.FU_type_0::SimdAdd                   0      0.00%     40.00% # Type of FU issued
system.cpu0.iq.FU_type_0::SimdAddAcc                0      0.00%     40.00% # Type of FU issued
system.cpu0.iq.FU_type_0::SimdAlu                   0      0.00%     40.00% # Type of FU issued
system.cpu0.iq.FU_type_0::SimdCmp                   0      0.00%     40.00% # Type of FU issued
system.cpu0.iq.FU_type_0::SimdCvt                   0      0.00%     40.00% # Type of FU issued
system.cpu0.iq.FU_type_0::SimdMisc                  0      0.00%     40.00% # Type of FU issued
system.cpu0.iq.FU_type_0::SimdMult                  0      0.00%     40.00% # Type of FU issued
system.cpu0.iq.FU_type_0::SimdMultAcc               0      0.00%     40.00% # Type of FU issued
system.cpu0.iq.FU_type_0::SimdShift                 0      0.00%     40.00% # Type of FU issued
system.cpu0.iq.FU_type_0::SimdShiftAcc              0      0.00%     40.00% # Type of FU issued
system.cpu0.iq.FU_type_0::SimdSqrt                  0      0.00%     40.00% # Type of FU issued
system.cpu0.iq.FU_type_0::SimdFloatAdd              0      0.00%     40.00% # Type of FU issued
system.cpu0.iq.FU_type_0::SimdFloatAlu              0      0.00%     40.00% # Type of FU issued
system.cpu0.iq.FU_type_0::SimdFloatCmp              0      0.00%     40.00% # Type of FU issued
system.cpu0.iq.FU_type_0::SimdFloatCvt              0      0.00%     40.00% # Type of FU issued
system.cpu0.iq.FU_type_0::SimdFloatDiv              0      0.00%     40.00% # Type of FU issued
system.cpu0.iq.FU_type_0::SimdFloatMisc             3      0.00%     40.00% # Type of FU issued
system.cpu0.iq.FU_type_0::SimdFloatMult             0      0.00%     40.00% # Type of FU issued
system.cpu0.iq.FU_type_0::SimdFloatMultAcc            0      0.00%     40.00% # Type of FU issued
system.cpu0.iq.FU_type_0::SimdFloatSqrt             0      0.00%     40.00% # Type of FU issued
system.cpu0.iq.FU_type_0::MemRead            68646177     40.00%     80.00% # Type of FU issued
system.cpu0.iq.FU_type_0::MemWrite           34325570     20.00%    100.00% # Type of FU issued
system.cpu0.iq.FU_type_0::IprAccess                 0      0.00%    100.00% # Type of FU issued
system.cpu0.iq.FU_type_0::InstPrefetch              0      0.00%    100.00% # Type of FU issued
system.cpu0.iq.FU_type_0::total             171625324                       # Type of FU issued
system.cpu0.iq.rate                          2.499098                       # Inst issue rate
system.cpu0.iq.fu_busy_cnt                          0                       # FU busy when requested
system.cpu0.iq.fu_busy_rate                         0                       # FU busy rate (busy events/executed inst)
system.cpu0.iq.int_inst_queue_reads         411918049                       # Number of integer instruction queue reads
system.cpu0.iq.int_inst_queue_writes        171635706                       # Number of integer instruction queue writes
system.cpu0.iq.int_inst_queue_wakeup_accesses    171623988                       # Number of integer instruction queue wakeup accesses
system.cpu0.iq.fp_inst_queue_reads                 32                       # Number of floating instruction queue reads
system.cpu0.iq.fp_inst_queue_writes                16                       # Number of floating instruction queue writes
system.cpu0.iq.fp_inst_queue_wakeup_accesses           16                       # Number of floating instruction queue wakeup accesses
system.cpu0.iq.int_alu_accesses             171625308                       # Number of integer alu accesses
system.cpu0.iq.fp_alu_accesses                     16                       # Number of floating point alu accesses
system.cpu0.iew.lsq.thread0.forwLoads        34321715                       # Number of loads that had data forwarded from stores
system.cpu0.iew.lsq.thread0.invAddrLoads            0                       # Number of loads ignored due to an invalid address
system.cpu0.iew.lsq.thread0.squashedLoads         2043                       # Number of loads squashed
system.cpu0.iew.lsq.thread0.ignoredResponses            1                       # Number of memory responses ignored because the instruction is squashed
system.cpu0.iew.lsq.thread0.memOrderViolation          151                       # Number of memory ordering violations
system.cpu0.iew.lsq.thread0.squashedStores          814                       # Number of stores squashed
system.cpu0.iew.lsq.thread0.invAddrSwpfs            0                       # Number of software prefetches ignored due to an invalid address
system.cpu0.iew.lsq.thread0.blockedLoads            0                       # Number of blocked loads due to partial load-store forwarding
system.cpu0.iew.lsq.thread0.rescheduledLoads            7                       # Number of loads that were rescheduled
system.cpu0.iew.lsq.thread0.cacheBlocked            0                       # Number of times an access to memory failed due to the cache being blocked
system.cpu0.iew.iewIdleCycles                       0                       # Number of cycles IEW is idle
system.cpu0.iew.iewSquashCycles                   753                       # Number of cycles IEW is squashing
system.cpu0.iew.iewBlockCycles                    593                       # Number of cycles IEW is blocking
system.cpu0.iew.iewUnblockCycles                  112                       # Number of cycles IEW is unblocking
system.cpu0.iew.iewDispatchedInsts          171628321                       # Number of instructions dispatched to IQ
system.cpu0.iew.iewDispSquashedInsts              427                       # Number of squashed instructions skipped by dispatch
system.cpu0.iew.iewDispLoadInsts             68646745                       # Number of dispatched load instructions
system.cpu0.iew.iewDispStoreInsts            34325982                       # Number of dispatched store instructions
system.cpu0.iew.iewDispNonSpecInsts                56                       # Number of dispatched non-speculative instructions
system.cpu0.iew.iewIQFullEvents                     3                       # Number of times the IQ has become full, causing a stall
system.cpu0.iew.iewLSQFullEvents                    0                       # Number of times the LSQ has become full, causing a stall
system.cpu0.iew.memOrderViolationEvents           151                       # Number of memory order violations
system.cpu0.iew.predictedTakenIncorrect            80                       # Number of branches that were predicted taken incorrectly
system.cpu0.iew.predictedNotTakenIncorrect          531                       # Number of branches that were predicted not taken incorrectly
system.cpu0.iew.branchMispredicts                 611                       # Number of branch mispredicts detected at execute
system.cpu0.iew.iewExecutedInsts            171624481                       # Number of executed instructions
system.cpu0.iew.iewExecLoadInsts             68645964                       # Number of load instructions executed
system.cpu0.iew.iewExecSquashedInsts              843                       # Number of squashed instructions skipped in execute
system.cpu0.iew.exec_swp                            0                       # number of swp insts executed
system.cpu0.iew.exec_nop                           21                       # number of nop insts executed
system.cpu0.iew.exec_refs                   102971328                       # number of memory reference insts executed
system.cpu0.iew.exec_branches                34323822                       # Number of branches executed
system.cpu0.iew.exec_stores                  34325364                       # Number of stores executed
system.cpu0.iew.exec_rate                    2.499086                       # Inst execution rate
system.cpu0.iew.wb_sent                     171624125                       # cumulative count of insts sent to commit
system.cpu0.iew.wb_count                    171624004                       # cumulative count of insts written-back
system.cpu0.iew.wb_producers                102971947                       # num instructions producing a value
system.cpu0.iew.wb_consumers                102982524                       # num instructions consuming a value
system.cpu0.iew.wb_penalized                        0                       # number of instrctions required to write to 'other' IQ
system.cpu0.iew.wb_rate                      2.499079                       # insts written-back per cycle
system.cpu0.iew.wb_fanout                    0.999897                       # average fanout of values written-back
system.cpu0.iew.wb_penalized_rate                   0                       # fraction of instructions written-back that wrote to 'other' IQ
system.cpu0.commit.commitSquashedInsts           7292                       # The number of squashed insts skipped by commit
system.cpu0.commit.commitNonSpecStalls             77                       # The number of times commit has been forced to stall to communicate backwards
system.cpu0.commit.branchMispredicts              581                       # The number of times a branch was mispredicted
system.cpu0.commit.committed_per_cycle::samples     68665582                       # Number of insts commited each cycle
system.cpu0.commit.committed_per_cycle::mean     2.499375                       # Number of insts commited each cycle
system.cpu0.commit.committed_per_cycle::stdev     1.580848                       # Number of insts commited each cycle
system.cpu0.commit.committed_per_cycle::underflows            0      0.00%      0.00% # Number of insts commited each cycle
system.cpu0.commit.committed_per_cycle::0        16361      0.02%      0.02% # Number of insts commited each cycle
system.cpu0.commit.committed_per_cycle::1     34324117     49.99%     50.01% # Number of insts commited each cycle
system.cpu0.commit.committed_per_cycle::2         1372      0.00%     50.01% # Number of insts commited each cycle
system.cpu0.commit.committed_per_cycle::3      8520710     12.41%     62.42% # Number of insts commited each cycle
system.cpu0.commit.committed_per_cycle::4     17283772     25.17%     87.59% # Number of insts commited each cycle
system.cpu0.commit.committed_per_cycle::5      8518907     12.41%    100.00% # Number of insts commited each cycle
system.cpu0.commit.committed_per_cycle::6           84      0.00%    100.00% # Number of insts commited each cycle
system.cpu0.commit.committed_per_cycle::7          162      0.00%    100.00% # Number of insts commited each cycle
system.cpu0.commit.committed_per_cycle::8           97      0.00%    100.00% # Number of insts commited each cycle
system.cpu0.commit.committed_per_cycle::overflows            0      0.00%    100.00% # Number of insts commited each cycle
system.cpu0.commit.committed_per_cycle::min_value            0                       # Number of insts commited each cycle
system.cpu0.commit.committed_per_cycle::max_value            8                       # Number of insts commited each cycle
system.cpu0.commit.committed_per_cycle::total     68665582                       # Number of insts commited each cycle
system.cpu0.commit.committedInsts           171617529                       # Number of instructions committed
system.cpu0.commit.committedOps             171621028                       # Number of ops (including micro ops) committed
system.cpu0.commit.swp_count                        0                       # Number of s/w prefetches committed
system.cpu0.commit.refs                     102969870                       # Number of memory references committed
system.cpu0.commit.loads                     68644702                       # Number of loads committed
system.cpu0.commit.membars                         26                       # Number of memory barriers committed
system.cpu0.commit.branches                  34323292                       # Number of branches committed
system.cpu0.commit.fp_insts                        16                       # Number of committed floating point instructions.
system.cpu0.commit.int_insts                137298164                       # Number of committed integer instructions.
system.cpu0.commit.function_calls                 172                       # Number of function calls committed.
system.cpu0.commit.op_class_0::No_OpClass            0      0.00%      0.00% # Class of committed instruction
system.cpu0.commit.op_class_0::IntAlu        68651149     40.00%     40.00% # Class of committed instruction
system.cpu0.commit.op_class_0::IntMult              6      0.00%     40.00% # Class of committed instruction
system.cpu0.commit.op_class_0::IntDiv               0      0.00%     40.00% # Class of committed instruction
system.cpu0.commit.op_class_0::FloatAdd             0      0.00%     40.00% # Class of committed instruction
system.cpu0.commit.op_class_0::FloatCmp             0      0.00%     40.00% # Class of committed instruction
system.cpu0.commit.op_class_0::FloatCvt             0      0.00%     40.00% # Class of committed instruction
system.cpu0.commit.op_class_0::FloatMult            0      0.00%     40.00% # Class of committed instruction
system.cpu0.commit.op_class_0::FloatDiv             0      0.00%     40.00% # Class of committed instruction
system.cpu0.commit.op_class_0::FloatSqrt            0      0.00%     40.00% # Class of committed instruction
system.cpu0.commit.op_class_0::SimdAdd              0      0.00%     40.00% # Class of committed instruction
system.cpu0.commit.op_class_0::SimdAddAcc            0      0.00%     40.00% # Class of committed instruction
system.cpu0.commit.op_class_0::SimdAlu              0      0.00%     40.00% # Class of committed instruction
system.cpu0.commit.op_class_0::SimdCmp              0      0.00%     40.00% # Class of committed instruction
system.cpu0.commit.op_class_0::SimdCvt              0      0.00%     40.00% # Class of committed instruction
system.cpu0.commit.op_class_0::SimdMisc             0      0.00%     40.00% # Class of committed instruction
system.cpu0.commit.op_class_0::SimdMult             0      0.00%     40.00% # Class of committed instruction
system.cpu0.commit.op_class_0::SimdMultAcc            0      0.00%     40.00% # Class of committed instruction
system.cpu0.commit.op_class_0::SimdShift            0      0.00%     40.00% # Class of committed instruction
system.cpu0.commit.op_class_0::SimdShiftAcc            0      0.00%     40.00% # Class of committed instruction
system.cpu0.commit.op_class_0::SimdSqrt             0      0.00%     40.00% # Class of committed instruction
system.cpu0.commit.op_class_0::SimdFloatAdd            0      0.00%     40.00% # Class of committed instruction
system.cpu0.commit.op_class_0::SimdFloatAlu            0      0.00%     40.00% # Class of committed instruction
system.cpu0.commit.op_class_0::SimdFloatCmp            0      0.00%     40.00% # Class of committed instruction
system.cpu0.commit.op_class_0::SimdFloatCvt            0      0.00%     40.00% # Class of committed instruction
system.cpu0.commit.op_class_0::SimdFloatDiv            0      0.00%     40.00% # Class of committed instruction
system.cpu0.commit.op_class_0::SimdFloatMisc            3      0.00%     40.00% # Class of committed instruction
system.cpu0.commit.op_class_0::SimdFloatMult            0      0.00%     40.00% # Class of committed instruction
system.cpu0.commit.op_class_0::SimdFloatMultAcc            0      0.00%     40.00% # Class of committed instruction
system.cpu0.commit.op_class_0::SimdFloatSqrt            0      0.00%     40.00% # Class of committed instruction
system.cpu0.commit.op_class_0::MemRead       68644702     40.00%     80.00% # Class of committed instruction
system.cpu0.commit.op_class_0::MemWrite      34325168     20.00%    100.00% # Class of committed instruction
system.cpu0.commit.op_class_0::IprAccess            0      0.00%    100.00% # Class of committed instruction
system.cpu0.commit.op_class_0::InstPrefetch            0      0.00%    100.00% # Class of committed instruction
system.cpu0.commit.op_class_0::total        171621028                       # Class of committed instruction
system.cpu0.commit.bw_lim_events                   97                       # number cycles where commit BW limit reached
system.cpu0.rob.rob_reads                   240293492                       # The number of ROB reads
system.cpu0.rob.rob_writes                  343257936                       # The number of ROB writes
system.cpu0.timesIdled                            246                       # Number of times that the entire CPU went into an idle state and unscheduled itself
system.cpu0.idleCycles                           8021                       # Total number of cycles that the CPU has spent unscheduled due to idling
system.cpu0.committedInsts                  171617529                       # Number of Instructions Simulated
system.cpu0.committedOps                    171621028                       # Number of Ops (including micro ops) Simulated
system.cpu0.cpi                              0.400162                       # CPI: Cycles Per Instruction
system.cpu0.cpi_total                        0.400162                       # CPI: Total CPI of All Threads
system.cpu0.ipc                              2.498985                       # IPC: Instructions Per Cycle
system.cpu0.ipc_total                        2.498985                       # IPC: Total IPC of All Threads
system.cpu0.int_regfile_reads               171627258                       # number of integer regfile reads
system.cpu0.int_regfile_writes               68652492                       # number of integer regfile writes
system.cpu0.fp_regfile_reads                     1296                       # number of floating regfile reads
system.cpu0.cc_regfile_reads                720809842                       # number of cc regfile reads
system.cpu0.cc_regfile_writes               102972694                       # number of cc regfile writes
system.cpu0.misc_regfile_reads              104246150                       # number of misc regfile reads
system.cpu0.misc_regfile_writes                    54                       # number of misc regfile writes
system.cpu0.dcache.tags.replacements               47                       # number of replacements
system.cpu0.dcache.tags.tagsinuse          122.241721                       # Cycle average of tags in use
system.cpu0.dcache.tags.total_refs           68646153                       # Total number of references to valid blocks.
system.cpu0.dcache.tags.sampled_refs              190                       # Sample count of references to valid blocks.
system.cpu0.dcache.tags.avg_refs         361295.542105                       # Average number of references to valid blocks.
system.cpu0.dcache.tags.warmup_cycle                0                       # Cycle when the warmup percentage was hit.
system.cpu0.dcache.tags.occ_blocks::cpu0.data   122.241721                       # Average occupied blocks per requestor
system.cpu0.dcache.tags.occ_percent::cpu0.data     0.238753                       # Average percentage of cache occupancy
system.cpu0.dcache.tags.occ_percent::total     0.238753                       # Average percentage of cache occupancy
system.cpu0.dcache.tags.occ_task_id_blocks::1024          143                       # Occupied blocks per task id
system.cpu0.dcache.tags.age_task_id_blocks_1024::0           25                       # Occupied blocks per task id
system.cpu0.dcache.tags.age_task_id_blocks_1024::4          118                       # Occupied blocks per task id
system.cpu0.dcache.tags.occ_task_id_percent::1024     0.279297                       # Percentage of cache occupancy per task id
system.cpu0.dcache.tags.tag_accesses        137298673                       # Number of tag accesses
system.cpu0.dcache.tags.data_accesses       137298673                       # Number of data accesses
system.cpu0.dcache.ReadReq_hits::cpu0.data     34323796                       # number of ReadReq hits
system.cpu0.dcache.ReadReq_hits::total       34323796                       # number of ReadReq hits
system.cpu0.dcache.WriteReq_hits::cpu0.data     34322673                       # number of WriteReq hits
system.cpu0.dcache.WriteReq_hits::total      34322673                       # number of WriteReq hits
system.cpu0.dcache.LoadLockedReq_hits::cpu0.data           22                       # number of LoadLockedReq hits
system.cpu0.dcache.LoadLockedReq_hits::total           22                       # number of LoadLockedReq hits
system.cpu0.dcache.StoreCondReq_hits::cpu0.data           24                       # number of StoreCondReq hits
system.cpu0.dcache.StoreCondReq_hits::total           24                       # number of StoreCondReq hits
system.cpu0.dcache.demand_hits::cpu0.data     68646469                       # number of demand (read+write) hits
system.cpu0.dcache.demand_hits::total        68646469                       # number of demand (read+write) hits
system.cpu0.dcache.overall_hits::cpu0.data     68646469                       # number of overall hits
system.cpu0.dcache.overall_hits::total       68646469                       # number of overall hits
system.cpu0.dcache.ReadReq_misses::cpu0.data          227                       # number of ReadReq misses
system.cpu0.dcache.ReadReq_misses::total          227                       # number of ReadReq misses
system.cpu0.dcache.WriteReq_misses::cpu0.data         2419                       # number of WriteReq misses
system.cpu0.dcache.WriteReq_misses::total         2419                       # number of WriteReq misses
system.cpu0.dcache.LoadLockedReq_misses::cpu0.data            3                       # number of LoadLockedReq misses
system.cpu0.dcache.LoadLockedReq_misses::total            3                       # number of LoadLockedReq misses
system.cpu0.dcache.StoreCondReq_misses::cpu0.data            1                       # number of StoreCondReq misses
system.cpu0.dcache.StoreCondReq_misses::total            1                       # number of StoreCondReq misses
system.cpu0.dcache.demand_misses::cpu0.data         2646                       # number of demand (read+write) misses
system.cpu0.dcache.demand_misses::total          2646                       # number of demand (read+write) misses
system.cpu0.dcache.overall_misses::cpu0.data         2646                       # number of overall misses
system.cpu0.dcache.overall_misses::total         2646                       # number of overall misses
system.cpu0.dcache.ReadReq_miss_latency::cpu0.data      9975490                       # number of ReadReq miss cycles
system.cpu0.dcache.ReadReq_miss_latency::total      9975490                       # number of ReadReq miss cycles
system.cpu0.dcache.WriteReq_miss_latency::cpu0.data    118728500                       # number of WriteReq miss cycles
system.cpu0.dcache.WriteReq_miss_latency::total    118728500                       # number of WriteReq miss cycles
system.cpu0.dcache.LoadLockedReq_miss_latency::cpu0.data       133500                       # number of LoadLockedReq miss cycles
system.cpu0.dcache.LoadLockedReq_miss_latency::total       133500                       # number of LoadLockedReq miss cycles
system.cpu0.dcache.StoreCondReq_miss_latency::cpu0.data         7500                       # number of StoreCondReq miss cycles
system.cpu0.dcache.StoreCondReq_miss_latency::total         7500                       # number of StoreCondReq miss cycles
system.cpu0.dcache.demand_miss_latency::cpu0.data    128703990                       # number of demand (read+write) miss cycles
system.cpu0.dcache.demand_miss_latency::total    128703990                       # number of demand (read+write) miss cycles
system.cpu0.dcache.overall_miss_latency::cpu0.data    128703990                       # number of overall miss cycles
system.cpu0.dcache.overall_miss_latency::total    128703990                       # number of overall miss cycles
system.cpu0.dcache.ReadReq_accesses::cpu0.data     34324023                       # number of ReadReq accesses(hits+misses)
system.cpu0.dcache.ReadReq_accesses::total     34324023                       # number of ReadReq accesses(hits+misses)
system.cpu0.dcache.WriteReq_accesses::cpu0.data     34325092                       # number of WriteReq accesses(hits+misses)
system.cpu0.dcache.WriteReq_accesses::total     34325092                       # number of WriteReq accesses(hits+misses)
system.cpu0.dcache.LoadLockedReq_accesses::cpu0.data           25                       # number of LoadLockedReq accesses(hits+misses)
system.cpu0.dcache.LoadLockedReq_accesses::total           25                       # number of LoadLockedReq accesses(hits+misses)
system.cpu0.dcache.StoreCondReq_accesses::cpu0.data           25                       # number of StoreCondReq accesses(hits+misses)
system.cpu0.dcache.StoreCondReq_accesses::total           25                       # number of StoreCondReq accesses(hits+misses)
system.cpu0.dcache.demand_accesses::cpu0.data     68649115                       # number of demand (read+write) accesses
system.cpu0.dcache.demand_accesses::total     68649115                       # number of demand (read+write) accesses
system.cpu0.dcache.overall_accesses::cpu0.data     68649115                       # number of overall (read+write) accesses
system.cpu0.dcache.overall_accesses::total     68649115                       # number of overall (read+write) accesses
system.cpu0.dcache.ReadReq_miss_rate::cpu0.data     0.000007                       # miss rate for ReadReq accesses
system.cpu0.dcache.ReadReq_miss_rate::total     0.000007                       # miss rate for ReadReq accesses
system.cpu0.dcache.WriteReq_miss_rate::cpu0.data     0.000070                       # miss rate for WriteReq accesses
system.cpu0.dcache.WriteReq_miss_rate::total     0.000070                       # miss rate for WriteReq accesses
system.cpu0.dcache.LoadLockedReq_miss_rate::cpu0.data     0.120000                       # miss rate for LoadLockedReq accesses
system.cpu0.dcache.LoadLockedReq_miss_rate::total     0.120000                       # miss rate for LoadLockedReq accesses
system.cpu0.dcache.StoreCondReq_miss_rate::cpu0.data     0.040000                       # miss rate for StoreCondReq accesses
system.cpu0.dcache.StoreCondReq_miss_rate::total     0.040000                       # miss rate for StoreCondReq accesses
system.cpu0.dcache.demand_miss_rate::cpu0.data     0.000039                       # miss rate for demand accesses
system.cpu0.dcache.demand_miss_rate::total     0.000039                       # miss rate for demand accesses
system.cpu0.dcache.overall_miss_rate::cpu0.data     0.000039                       # miss rate for overall accesses
system.cpu0.dcache.overall_miss_rate::total     0.000039                       # miss rate for overall accesses
system.cpu0.dcache.ReadReq_avg_miss_latency::cpu0.data 43944.889868                       # average ReadReq miss latency
system.cpu0.dcache.ReadReq_avg_miss_latency::total 43944.889868                       # average ReadReq miss latency
system.cpu0.dcache.WriteReq_avg_miss_latency::cpu0.data 49081.645308                       # average WriteReq miss latency
system.cpu0.dcache.WriteReq_avg_miss_latency::total 49081.645308                       # average WriteReq miss latency
system.cpu0.dcache.LoadLockedReq_avg_miss_latency::cpu0.data        44500                       # average LoadLockedReq miss latency
system.cpu0.dcache.LoadLockedReq_avg_miss_latency::total        44500                       # average LoadLockedReq miss latency
system.cpu0.dcache.StoreCondReq_avg_miss_latency::cpu0.data         7500                       # average StoreCondReq miss latency
system.cpu0.dcache.StoreCondReq_avg_miss_latency::total         7500                       # average StoreCondReq miss latency
system.cpu0.dcache.demand_avg_miss_latency::cpu0.data 48640.963719                       # average overall miss latency
system.cpu0.dcache.demand_avg_miss_latency::total 48640.963719                       # average overall miss latency
system.cpu0.dcache.overall_avg_miss_latency::cpu0.data 48640.963719                       # average overall miss latency
system.cpu0.dcache.overall_avg_miss_latency::total 48640.963719                       # average overall miss latency
system.cpu0.dcache.blocked_cycles::no_mshrs            0                       # number of cycles access was blocked
system.cpu0.dcache.blocked_cycles::no_targets            0                       # number of cycles access was blocked
system.cpu0.dcache.blocked::no_mshrs                0                       # number of cycles access was blocked
system.cpu0.dcache.blocked::no_targets              0                       # number of cycles access was blocked
system.cpu0.dcache.avg_blocked_cycles::no_mshrs          nan                       # average number of cycles each access was blocked
system.cpu0.dcache.avg_blocked_cycles::no_targets          nan                       # average number of cycles each access was blocked
system.cpu0.dcache.fast_writes                      0                       # number of fast writes performed
system.cpu0.dcache.cache_copies                     0                       # number of cache copies performed
system.cpu0.dcache.writebacks::writebacks           17                       # number of writebacks
system.cpu0.dcache.writebacks::total               17                       # number of writebacks
system.cpu0.dcache.ReadReq_mshr_hits::cpu0.data           78                       # number of ReadReq MSHR hits
system.cpu0.dcache.ReadReq_mshr_hits::total           78                       # number of ReadReq MSHR hits
system.cpu0.dcache.WriteReq_mshr_hits::cpu0.data         2221                       # number of WriteReq MSHR hits
system.cpu0.dcache.WriteReq_mshr_hits::total         2221                       # number of WriteReq MSHR hits
system.cpu0.dcache.LoadLockedReq_mshr_hits::cpu0.data            3                       # number of LoadLockedReq MSHR hits
system.cpu0.dcache.LoadLockedReq_mshr_hits::total            3                       # number of LoadLockedReq MSHR hits
system.cpu0.dcache.demand_mshr_hits::cpu0.data         2299                       # number of demand (read+write) MSHR hits
system.cpu0.dcache.demand_mshr_hits::total         2299                       # number of demand (read+write) MSHR hits
system.cpu0.dcache.overall_mshr_hits::cpu0.data         2299                       # number of overall MSHR hits
system.cpu0.dcache.overall_mshr_hits::total         2299                       # number of overall MSHR hits
system.cpu0.dcache.ReadReq_mshr_misses::cpu0.data          149                       # number of ReadReq MSHR misses
system.cpu0.dcache.ReadReq_mshr_misses::total          149                       # number of ReadReq MSHR misses
system.cpu0.dcache.WriteReq_mshr_misses::cpu0.data          198                       # number of WriteReq MSHR misses
system.cpu0.dcache.WriteReq_mshr_misses::total          198                       # number of WriteReq MSHR misses
system.cpu0.dcache.StoreCondReq_mshr_misses::cpu0.data            1                       # number of StoreCondReq MSHR misses
system.cpu0.dcache.StoreCondReq_mshr_misses::total            1                       # number of StoreCondReq MSHR misses
system.cpu0.dcache.demand_mshr_misses::cpu0.data          347                       # number of demand (read+write) MSHR misses
system.cpu0.dcache.demand_mshr_misses::total          347                       # number of demand (read+write) MSHR misses
system.cpu0.dcache.overall_mshr_misses::cpu0.data          347                       # number of overall MSHR misses
system.cpu0.dcache.overall_mshr_misses::total          347                       # number of overall MSHR misses
system.cpu0.dcache.ReadReq_mshr_miss_latency::cpu0.data      6233006                       # number of ReadReq MSHR miss cycles
system.cpu0.dcache.ReadReq_mshr_miss_latency::total      6233006                       # number of ReadReq MSHR miss cycles
system.cpu0.dcache.WriteReq_mshr_miss_latency::cpu0.data     10853000                       # number of WriteReq MSHR miss cycles
system.cpu0.dcache.WriteReq_mshr_miss_latency::total     10853000                       # number of WriteReq MSHR miss cycles
system.cpu0.dcache.StoreCondReq_mshr_miss_latency::cpu0.data         4500                       # number of StoreCondReq MSHR miss cycles
system.cpu0.dcache.StoreCondReq_mshr_miss_latency::total         4500                       # number of StoreCondReq MSHR miss cycles
system.cpu0.dcache.demand_mshr_miss_latency::cpu0.data     17086006                       # number of demand (read+write) MSHR miss cycles
system.cpu0.dcache.demand_mshr_miss_latency::total     17086006                       # number of demand (read+write) MSHR miss cycles
system.cpu0.dcache.overall_mshr_miss_latency::cpu0.data     17086006                       # number of overall MSHR miss cycles
system.cpu0.dcache.overall_mshr_miss_latency::total     17086006                       # number of overall MSHR miss cycles
system.cpu0.dcache.ReadReq_mshr_miss_rate::cpu0.data     0.000004                       # mshr miss rate for ReadReq accesses
system.cpu0.dcache.ReadReq_mshr_miss_rate::total     0.000004                       # mshr miss rate for ReadReq accesses
system.cpu0.dcache.WriteReq_mshr_miss_rate::cpu0.data     0.000006                       # mshr miss rate for WriteReq accesses
system.cpu0.dcache.WriteReq_mshr_miss_rate::total     0.000006                       # mshr miss rate for WriteReq accesses
system.cpu0.dcache.StoreCondReq_mshr_miss_rate::cpu0.data     0.040000                       # mshr miss rate for StoreCondReq accesses
system.cpu0.dcache.StoreCondReq_mshr_miss_rate::total     0.040000                       # mshr miss rate for StoreCondReq accesses
system.cpu0.dcache.demand_mshr_miss_rate::cpu0.data     0.000005                       # mshr miss rate for demand accesses
system.cpu0.dcache.demand_mshr_miss_rate::total     0.000005                       # mshr miss rate for demand accesses
system.cpu0.dcache.overall_mshr_miss_rate::cpu0.data     0.000005                       # mshr miss rate for overall accesses
system.cpu0.dcache.overall_mshr_miss_rate::total     0.000005                       # mshr miss rate for overall accesses
system.cpu0.dcache.ReadReq_avg_mshr_miss_latency::cpu0.data 41832.255034                       # average ReadReq mshr miss latency
system.cpu0.dcache.ReadReq_avg_mshr_miss_latency::total 41832.255034                       # average ReadReq mshr miss latency
system.cpu0.dcache.WriteReq_avg_mshr_miss_latency::cpu0.data 54813.131313                       # average WriteReq mshr miss latency
system.cpu0.dcache.WriteReq_avg_mshr_miss_latency::total 54813.131313                       # average WriteReq mshr miss latency
system.cpu0.dcache.StoreCondReq_avg_mshr_miss_latency::cpu0.data         4500                       # average StoreCondReq mshr miss latency
system.cpu0.dcache.StoreCondReq_avg_mshr_miss_latency::total         4500                       # average StoreCondReq mshr miss latency
system.cpu0.dcache.demand_avg_mshr_miss_latency::cpu0.data 49239.210375                       # average overall mshr miss latency
system.cpu0.dcache.demand_avg_mshr_miss_latency::total 49239.210375                       # average overall mshr miss latency
system.cpu0.dcache.overall_avg_mshr_miss_latency::cpu0.data 49239.210375                       # average overall mshr miss latency
system.cpu0.dcache.overall_avg_mshr_miss_latency::total 49239.210375                       # average overall mshr miss latency
system.cpu0.dcache.no_allocate_misses               0                       # Number of misses that were no-allocate
system.cpu0.icache.tags.replacements               64                       # number of replacements
system.cpu0.icache.tags.tagsinuse          289.951279                       # Cycle average of tags in use
system.cpu0.icache.tags.total_refs               2094                       # Total number of references to valid blocks.
[...]
system.l2.demand_avg_mshr_miss_latency::cpu8.data 40529.658115                       # average overall mshr miss latency
system.l2.demand_avg_mshr_miss_latency::total 40536.416863                       # average overall mshr miss latency
system.l2.overall_avg_mshr_miss_latency::cpu0.inst 41046.109510                       # average overall mshr miss latency
system.l2.overall_avg_mshr_miss_latency::cpu0.data 41268.166090                       # average overall mshr miss latency
system.l2.overall_avg_mshr_miss_latency::cpu1.inst 40944.444444                       # average overall mshr miss latency
system.l2.overall_avg_mshr_miss_latency::cpu1.data 40535.991008                       # average overall mshr miss latency
system.l2.overall_avg_mshr_miss_latency::cpu2.inst 40976.190476                       # average overall mshr miss latency
system.l2.overall_avg_mshr_miss_latency::cpu2.data 40530.985599                       # average overall mshr miss latency
system.l2.overall_avg_mshr_miss_latency::cpu3.inst 40733.333333                       # average overall mshr miss latency
system.l2.overall_avg_mshr_miss_latency::cpu3.data 40529.895763                       # average overall mshr miss latency
system.l2.overall_avg_mshr_miss_latency::cpu4.inst 40857.142857                       # average overall mshr miss latency
system.l2.overall_avg_mshr_miss_latency::cpu4.data 40530.504577                       # average overall mshr miss latency
system.l2.overall_avg_mshr_miss_latency::cpu5.inst 41413.793103                       # average overall mshr miss latency
system.l2.overall_avg_mshr_miss_latency::cpu5.data 40536.782021                       # average overall mshr miss latency
system.l2.overall_avg_mshr_miss_latency::cpu6.inst        40500                       # average overall mshr miss latency
system.l2.overall_avg_mshr_miss_latency::cpu6.data 40535.628286                       # average overall mshr miss latency
system.l2.overall_avg_mshr_miss_latency::cpu7.inst 40822.580645                       # average overall mshr miss latency
system.l2.overall_avg_mshr_miss_latency::cpu7.data 40536.162934                       # average overall mshr miss latency
system.l2.overall_avg_mshr_miss_latency::cpu8.inst 40623.655914                       # average overall mshr miss latency
system.l2.overall_avg_mshr_miss_latency::cpu8.data 40529.658115                       # average overall mshr miss latency
system.l2.overall_avg_mshr_miss_latency::total 40536.416863                       # average overall mshr miss latency
system.l2.no_allocate_misses                        0                       # Number of misses that were no-allocate
system.membus.trans_dist::ReadReq              161527                       # Transaction distribution
system.membus.trans_dist::ReadResp             161527                       # Transaction distribution
system.membus.trans_dist::Writeback              1755                       # Transaction distribution
system.membus.trans_dist::UpgradeReq           553411                       # Transaction distribution
system.membus.trans_dist::SCUpgradeReq         464326                       # Transaction distribution
system.membus.trans_dist::UpgradeResp          365171                       # Transaction distribution
system.membus.trans_dist::SCUpgradeFailReq            9                       # Transaction distribution
system.membus.trans_dist::ReadExReq              3264                       # Transaction distribution
system.membus.trans_dist::ReadExResp             3115                       # Transaction distribution
system.membus.pkt_count_system.l2.mem_side::system.physmem.port      1714105                       # Packet count per connected master and slave (bytes)
system.membus.pkt_count::total                1714105                       # Packet count per connected master and slave (bytes)
system.membus.pkt_size_system.l2.mem_side::system.physmem.port     10649408                       # Cumulative packet size per connected master and slave (bytes)
system.membus.pkt_size::total                10649408                       # Cumulative packet size per connected master and slave (bytes)
system.membus.snoops                           652724                       # Total snoops (count)
system.membus.snoop_fanout::samples           1186236                       # Request fanout histogram
system.membus.snoop_fanout::mean                    0                       # Request fanout histogram
system.membus.snoop_fanout::stdev                   0                       # Request fanout histogram
system.membus.snoop_fanout::underflows              0      0.00%      0.00% # Request fanout histogram
system.membus.snoop_fanout::0                 1186236    100.00%    100.00% # Request fanout histogram
system.membus.snoop_fanout::1                       0      0.00%    100.00% # Request fanout histogram
system.membus.snoop_fanout::overflows               0      0.00%    100.00% # Request fanout histogram
system.membus.snoop_fanout::min_value               0                       # Request fanout histogram
system.membus.snoop_fanout::max_value               0                       # Request fanout histogram
system.membus.snoop_fanout::total             1186236                       # Request fanout histogram
system.membus.reqLayer0.occupancy           794487162                       # Layer occupancy (ticks)
system.membus.reqLayer0.utilization               1.2                       # Layer utilization (%)
system.membus.respLayer1.occupancy         1439622229                       # Layer occupancy (ticks)
system.membus.respLayer1.utilization              2.1                       # Layer utilization (%)
system.tol2bus.trans_dist::ReadReq            2858357                       # Transaction distribution
system.tol2bus.trans_dist::ReadResp           2853160                       # Transaction distribution
system.tol2bus.trans_dist::ReadRespWithInvalidate         5197                       # Transaction distribution
system.tol2bus.trans_dist::Writeback            34804                       # Transaction distribution
system.tol2bus.trans_dist::UpgradeReq          553413                       # Transaction distribution
system.tol2bus.trans_dist::SCUpgradeReq        464343                       # Transaction distribution
system.tol2bus.trans_dist::UpgradeResp        1017756                       # Transaction distribution
system.tol2bus.trans_dist::SCUpgradeFailReq       248862                       # Transaction distribution
system.tol2bus.trans_dist::UpgradeFailResp       248862                       # Transaction distribution
system.tol2bus.trans_dist::ReadExReq             8302                       # Transaction distribution
system.tol2bus.trans_dist::ReadExResp            8302                       # Transaction distribution
system.tol2bus.pkt_count_system.cpu0.icache.mem_side::system.l2.cpu_side          768                       # Packet count per connected master and slave (bytes)
system.tol2bus.pkt_count_system.cpu0.dcache.mem_side::system.l2.cpu_side          701                       # Packet count per connected master and slave (bytes)
system.tol2bus.pkt_count_system.cpu1.icache.mem_side::system.l2.cpu_side         5768                       # Packet count per connected master and slave (bytes)
system.tol2bus.pkt_count_system.cpu1.dcache.mem_side::system.l2.cpu_side       527555                       # Packet count per connected master and slave (bytes)
system.tol2bus.pkt_count_system.cpu2.icache.mem_side::system.l2.cpu_side         4302                       # Packet count per connected master and slave (bytes)
system.tol2bus.pkt_count_system.cpu2.dcache.mem_side::system.l2.cpu_side       644169                       # Packet count per connected master and slave (bytes)
system.tol2bus.pkt_count_system.cpu3.icache.mem_side::system.l2.cpu_side         5134                       # Packet count per connected master and slave (bytes)
system.tol2bus.pkt_count_system.cpu3.dcache.mem_side::system.l2.cpu_side       635701                       # Packet count per connected master and slave (bytes)
system.tol2bus.pkt_count_system.cpu4.icache.mem_side::system.l2.cpu_side         5690                       # Packet count per connected master and slave (bytes)
system.tol2bus.pkt_count_system.cpu4.dcache.mem_side::system.l2.cpu_side       638122                       # Packet count per connected master and slave (bytes)
system.tol2bus.pkt_count_system.cpu5.icache.mem_side::system.l2.cpu_side         5922                       # Packet count per connected master and slave (bytes)
system.tol2bus.pkt_count_system.cpu5.dcache.mem_side::system.l2.cpu_side       636977                       # Packet count per connected master and slave (bytes)
system.tol2bus.pkt_count_system.cpu6.icache.mem_side::system.l2.cpu_side         6048                       # Packet count per connected master and slave (bytes)
system.tol2bus.pkt_count_system.cpu6.dcache.mem_side::system.l2.cpu_side       608116                       # Packet count per connected master and slave (bytes)
system.tol2bus.pkt_count_system.cpu7.icache.mem_side::system.l2.cpu_side         6276                       # Packet count per connected master and slave (bytes)
system.tol2bus.pkt_count_system.cpu7.dcache.mem_side::system.l2.cpu_side       660822                       # Packet count per connected master and slave (bytes)
system.tol2bus.pkt_count_system.cpu8.icache.mem_side::system.l2.cpu_side         6122                       # Packet count per connected master and slave (bytes)
system.tol2bus.pkt_count_system.cpu8.dcache.mem_side::system.l2.cpu_side       593600                       # Packet count per connected master and slave (bytes)
system.tol2bus.pkt_count::total               4991793                       # Packet count per connected master and slave (bytes)
system.tol2bus.pkt_size_system.cpu0.icache.mem_side::system.l2.cpu_side        24576                       # Cumulative packet size per connected master and slave (bytes)
system.tol2bus.pkt_size_system.cpu0.dcache.mem_side::system.l2.cpu_side        22400                       # Cumulative packet size per connected master and slave (bytes)
system.tol2bus.pkt_size_system.cpu1.icache.mem_side::system.l2.cpu_side       184576                       # Cumulative packet size per connected master and slave (bytes)
system.tol2bus.pkt_size_system.cpu1.dcache.mem_side::system.l2.cpu_side      3698624                       # Cumulative packet size per connected master and slave (bytes)
system.tol2bus.pkt_size_system.cpu2.icache.mem_side::system.l2.cpu_side       137664                       # Cumulative packet size per connected master and slave (bytes)
system.tol2bus.pkt_size_system.cpu2.dcache.mem_side::system.l2.cpu_side      3713792                       # Cumulative packet size per connected master and slave (bytes)
system.tol2bus.pkt_size_system.cpu3.icache.mem_side::system.l2.cpu_side       164224                       # Cumulative packet size per connected master and slave (bytes)
system.tol2bus.pkt_size_system.cpu3.dcache.mem_side::system.l2.cpu_side      3466880                       # Cumulative packet size per connected master and slave (bytes)
system.tol2bus.pkt_size_system.cpu4.icache.mem_side::system.l2.cpu_side       182080                       # Cumulative packet size per connected master and slave (bytes)
system.tol2bus.pkt_size_system.cpu4.dcache.mem_side::system.l2.cpu_side      3537920                       # Cumulative packet size per connected master and slave (bytes)
system.tol2bus.pkt_size_system.cpu5.icache.mem_side::system.l2.cpu_side       189440                       # Cumulative packet size per connected master and slave (bytes)
system.tol2bus.pkt_size_system.cpu5.dcache.mem_side::system.l2.cpu_side      3922624                       # Cumulative packet size per connected master and slave (bytes)
system.tol2bus.pkt_size_system.cpu6.icache.mem_side::system.l2.cpu_side       193536                       # Cumulative packet size per connected master and slave (bytes)
system.tol2bus.pkt_size_system.cpu6.dcache.mem_side::system.l2.cpu_side      4037120                       # Cumulative packet size per connected master and slave (bytes)
system.tol2bus.pkt_size_system.cpu7.icache.mem_side::system.l2.cpu_side       200832                       # Cumulative packet size per connected master and slave (bytes)
system.tol2bus.pkt_size_system.cpu7.dcache.mem_side::system.l2.cpu_side      3798336                       # Cumulative packet size per connected master and slave (bytes)
system.tol2bus.pkt_size_system.cpu8.icache.mem_side::system.l2.cpu_side       195776                       # Cumulative packet size per connected master and slave (bytes)
system.tol2bus.pkt_size_system.cpu8.dcache.mem_side::system.l2.cpu_side      3902464                       # Cumulative packet size per connected master and slave (bytes)
system.tol2bus.pkt_size::total               31572864                       # Cumulative packet size per connected master and slave (bytes)
system.tol2bus.snoops                         3309565                       # Total snoops (count)
system.tol2bus.snoop_fanout::samples          4168081                       # Request fanout histogram
system.tol2bus.snoop_fanout::mean                  17                       # Request fanout histogram
system.tol2bus.snoop_fanout::stdev                  0                       # Request fanout histogram
system.tol2bus.snoop_fanout::underflows             0      0.00%      0.00% # Request fanout histogram
system.tol2bus.snoop_fanout::0                      0      0.00%      0.00% # Request fanout histogram
system.tol2bus.snoop_fanout::1                      0      0.00%      0.00% # Request fanout histogram
system.tol2bus.snoop_fanout::2                      0      0.00%      0.00% # Request fanout histogram
system.tol2bus.snoop_fanout::3                      0      0.00%      0.00% # Request fanout histogram
system.tol2bus.snoop_fanout::4                      0      0.00%      0.00% # Request fanout histogram
system.tol2bus.snoop_fanout::5                      0      0.00%      0.00% # Request fanout histogram
system.tol2bus.snoop_fanout::6                      0      0.00%      0.00% # Request fanout histogram
system.tol2bus.snoop_fanout::7                      0      0.00%      0.00% # Request fanout histogram
system.tol2bus.snoop_fanout::8                      0      0.00%      0.00% # Request fanout histogram
system.tol2bus.snoop_fanout::9                      0      0.00%      0.00% # Request fanout histogram
system.tol2bus.snoop_fanout::10                     0      0.00%      0.00% # Request fanout histogram
system.tol2bus.snoop_fanout::11                     0      0.00%      0.00% # Request fanout histogram
system.tol2bus.snoop_fanout::12                     0      0.00%      0.00% # Request fanout histogram
system.tol2bus.snoop_fanout::13                     0      0.00%      0.00% # Request fanout histogram
system.tol2bus.snoop_fanout::14                     0      0.00%      0.00% # Request fanout histogram
system.tol2bus.snoop_fanout::15                     0      0.00%      0.00% # Request fanout histogram
system.tol2bus.snoop_fanout::16                     0      0.00%      0.00% # Request fanout histogram
system.tol2bus.snoop_fanout::17               4168081    100.00%    100.00% # Request fanout histogram
system.tol2bus.snoop_fanout::18                     0      0.00%    100.00% # Request fanout histogram
system.tol2bus.snoop_fanout::overflows              0      0.00%    100.00% # Request fanout histogram
system.tol2bus.snoop_fanout::min_value             17                       # Request fanout histogram
system.tol2bus.snoop_fanout::max_value             17                       # Request fanout histogram
system.tol2bus.snoop_fanout::total            4168081                       # Request fanout histogram
system.tol2bus.reqLayer0.occupancy         2130995941                       # Layer occupancy (ticks)
system.tol2bus.reqLayer0.utilization              3.1                       # Layer utilization (%)
system.tol2bus.respLayer0.occupancy            576998                       # Layer occupancy (ticks)
system.tol2bus.respLayer0.utilization             0.0                       # Layer utilization (%)
system.tol2bus.respLayer1.occupancy            519994                       # Layer occupancy (ticks)
system.tol2bus.respLayer1.utilization             0.0                       # Layer utilization (%)
system.tol2bus.respLayer4.occupancy           4346409                       # Layer occupancy (ticks)
system.tol2bus.respLayer4.utilization             0.0                       # Layer utilization (%)
system.tol2bus.respLayer5.occupancy         542958165                       # Layer occupancy (ticks)
system.tol2bus.respLayer5.utilization             0.8                       # Layer utilization (%)
system.tol2bus.respLayer8.occupancy           3272340                       # Layer occupancy (ticks)
system.tol2bus.respLayer8.utilization             0.0                       # Layer utilization (%)
system.tol2bus.respLayer9.occupancy         700365772                       # Layer occupancy (ticks)
system.tol2bus.respLayer9.utilization             1.0                       # Layer utilization (%)
system.tol2bus.respLayer12.occupancy          3878366                       # Layer occupancy (ticks)
system.tol2bus.respLayer12.utilization            0.0                       # Layer utilization (%)
system.tol2bus.respLayer13.occupancy        702535142                       # Layer occupancy (ticks)
system.tol2bus.respLayer13.utilization            1.0                       # Layer utilization (%)
system.tol2bus.respLayer16.occupancy          4286419                       # Layer occupancy (ticks)
system.tol2bus.respLayer16.utilization            0.0                       # Layer utilization (%)
system.tol2bus.respLayer17.occupancy        706293842                       # Layer occupancy (ticks)
system.tol2bus.respLayer17.utilization            1.0                       # Layer utilization (%)
system.tol2bus.respLayer20.occupancy          4453449                       # Layer occupancy (ticks)
system.tol2bus.respLayer20.utilization            0.0                       # Layer utilization (%)
system.tol2bus.respLayer21.occupancy        675030543                       # Layer occupancy (ticks)
system.tol2bus.respLayer21.utilization            1.0                       # Layer utilization (%)
system.tol2bus.respLayer24.occupancy          4545470                       # Layer occupancy (ticks)
system.tol2bus.respLayer24.utilization            0.0                       # Layer utilization (%)
system.tol2bus.respLayer25.occupancy        628939439                       # Layer occupancy (ticks)
system.tol2bus.respLayer25.utilization            0.9                       # Layer utilization (%)
system.tol2bus.respLayer28.occupancy          4717458                       # Layer occupancy (ticks)
system.tol2bus.respLayer28.utilization            0.0                       # Layer utilization (%)
system.tol2bus.respLayer29.occupancy        721188218                       # Layer occupancy (ticks)
system.tol2bus.respLayer29.utilization            1.1                       # Layer utilization (%)
system.tol2bus.respLayer32.occupancy          4597492                       # Layer occupancy (ticks)
system.tol2bus.respLayer32.utilization            0.0                       # Layer utilization (%)
system.tol2bus.respLayer33.occupancy        629339084                       # Layer occupancy (ticks)
system.tol2bus.respLayer33.utilization            0.9                       # Layer utilization (%)

---------- End Simulation Statistics   ----------
