
---------- Begin Simulation Statistics ----------
sim_seconds                                  0.080822                       # Number of seconds simulated
sim_ticks                                 80821674000                       # Number of ticks simulated
final_tick                                80821674000                       # Number of ticks from beginning of simulation (restored from checkpoints and never reset)
sim_freq                                 1000000000000                       # Frequency of simulated ticks
host_inst_rate                                 220524                       # Simulator instruction rate (inst/s)
host_op_rate                                   227974                       # Simulator op (including micro ops) rate (op/s)
host_tick_rate                               65558429                       # Simulator tick rate (ticks/s)
host_mem_usage                                 678400                       # Number of bytes of host memory used
host_seconds                                  1232.82                       # Real time elapsed on the host
sim_insts                                   271865916                       # Number of instructions simulated
sim_ops                                     281050786                       # Number of ops (including micro ops) simulated
system.voltage_domain.voltage                       1                       # Voltage in Volts
system.clk_domain.clock                          1000                       # Clock period in ticks
system.physmem.bytes_read::cpu0.inst            22208                       # Number of bytes read from this memory
system.physmem.bytes_read::cpu0.data            17472                       # Number of bytes read from this memory
system.physmem.bytes_read::cpu1.inst            17984                       # Number of bytes read from this memory
system.physmem.bytes_read::cpu1.data           187712                       # Number of bytes read from this memory
system.physmem.bytes_read::total               245376                       # Number of bytes read from this memory
system.physmem.bytes_inst_read::cpu0.inst        22208                       # Number of instructions bytes read from this memory
system.physmem.bytes_inst_read::cpu1.inst        17984                       # Number of instructions bytes read from this memory
system.physmem.bytes_inst_read::total           40192                       # Number of instructions bytes read from this memory
system.physmem.num_reads::cpu0.inst               347                       # Number of read requests responded to by this memory
system.physmem.num_reads::cpu0.data               273                       # Number of read requests responded to by this memory
system.physmem.num_reads::cpu1.inst               281                       # Number of read requests responded to by this memory
system.physmem.num_reads::cpu1.data              2933                       # Number of read requests responded to by this memory
system.physmem.num_reads::total                  3834                       # Number of read requests responded to by this memory
system.physmem.bw_read::cpu0.inst              274778                       # Total read bandwidth from this memory (bytes/s)
system.physmem.bw_read::cpu0.data              216180                       # Total read bandwidth from this memory (bytes/s)
system.physmem.bw_read::cpu1.inst              222515                       # Total read bandwidth from this memory (bytes/s)
system.physmem.bw_read::cpu1.data             2322545                       # Total read bandwidth from this memory (bytes/s)
system.physmem.bw_read::total                 3036017                       # Total read bandwidth from this memory (bytes/s)
system.physmem.bw_inst_read::cpu0.inst         274778                       # Instruction read bandwidth from this memory (bytes/s)
system.physmem.bw_inst_read::cpu1.inst         222515                       # Instruction read bandwidth from this memory (bytes/s)
system.physmem.bw_inst_read::total             497292                       # Instruction read bandwidth from this memory (bytes/s)
system.physmem.bw_total::cpu0.inst             274778                       # Total bandwidth to/from this memory (bytes/s)
system.physmem.bw_total::cpu0.data             216180                       # Total bandwidth to/from this memory (bytes/s)
system.physmem.bw_total::cpu1.inst             222515                       # Total bandwidth to/from this memory (bytes/s)
system.physmem.bw_total::cpu1.data            2322545                       # Total bandwidth to/from this memory (bytes/s)
system.physmem.bw_total::total                3036017                       # Total bandwidth to/from this memory (bytes/s)
system.cpu0.branchPred.lookups               40399949                       # Number of BP lookups
system.cpu0.branchPred.condPredicted         40399096                       # Number of conditional branches predicted
system.cpu0.branchPred.condIncorrect              573                       # Number of conditional branches incorrect
system.cpu0.branchPred.BTBLookups            40398384                       # Number of BTB lookups
system.cpu0.branchPred.BTBHits               40397999                       # Number of BTB hits
system.cpu0.branchPred.BTBCorrect                   0                       # Number of correct BTB predictions (this stat may not work properly.
system.cpu0.branchPred.BTBHitPct            99.999047                       # BTB Hit Percentage
system.cpu0.branchPred.usedRAS                    262                       # Number of times the RAS was used to get a target.
system.cpu0.branchPred.RASInCorrect                55                       # Number of incorrect RAS predictions.
system.cpu0.dstage2_mmu.stage2_tlb.walker.walks            0                       # Table walker walks requested
system.cpu0.dstage2_mmu.stage2_tlb.walker.walkRequestOrigin_Requested::Data            0                       # Table walker requests started/completed, data/inst
system.cpu0.dstage2_mmu.stage2_tlb.walker.walkRequestOrigin_Requested::Inst            0                       # Table walker requests started/completed, data/inst
system.cpu0.dstage2_mmu.stage2_tlb.walker.walkRequestOrigin_Requested::total            0                       # Table walker requests started/completed, data/inst
system.cpu0.dstage2_mmu.stage2_tlb.walker.walkRequestOrigin_Completed::Data            0                       # Table walker requests started/completed, data/inst
system.cpu0.dstage2_mmu.stage2_tlb.walker.walkRequestOrigin_Completed::Inst            0                       # Table walker requests started/completed, data/inst
system.cpu0.dstage2_mmu.stage2_tlb.walker.walkRequestOrigin_Completed::total            0                       # Table walker requests started/completed, data/inst
system.cpu0.dstage2_mmu.stage2_tlb.walker.walkRequestOrigin::total            0                       # Table walker requests started/completed, data/inst
system.cpu0.dstage2_mmu.stage2_tlb.inst_hits            0                       # ITB inst hits
system.cpu0.dstage2_mmu.stage2_tlb.inst_misses            0                       # ITB inst misses
system.cpu0.dstage2_mmu.stage2_tlb.read_hits            0                       # DTB read hits
system.cpu0.dstage2_mmu.stage2_tlb.read_misses            0                       # DTB read misses
system.cpu0.dstage2_mmu.stage2_tlb.write_hits            0                       # DTB write hits
system.cpu0.dstage2_mmu.stage2_tlb.write_misses            0                       # DTB write misses
system.cpu0.dstage2_mmu.stage2_tlb.flush_tlb            0                       # Number of times complete TLB was flushed
system.cpu0.dstage2_mmu.stage2_tlb.flush_tlb_mva            0                       # Number of times TLB was flushed by MVA
system.cpu0.dstage2_mmu.stage2_tlb.flush_tlb_mva_asid            0                       # Number of times TLB was flushed by MVA & ASID
system.cpu0.dstage2_mmu.stage2_tlb.flush_tlb_asid            0                       # Number of times TLB was flushed by ASID
system.cpu0.dstage2_mmu.stage2_tlb.flush_entries            0                       # Number of entries that have been flushed from TLB
system.cpu0.dstage2_mmu.stage2_tlb.align_faults            0                       # Number of TLB faults due to alignment restrictions
system.cpu0.dstage2_mmu.stage2_tlb.prefetch_faults            0                       # Number of TLB faults due to prefetch
system.cpu0.dstage2_mmu.stage2_tlb.domain_faults            0                       # Number of TLB faults due to domain restrictions
system.cpu0.dstage2_mmu.stage2_tlb.perms_faults            0                       # Number of TLB faults due to permissions restrictions
system.cpu0.dstage2_mmu.stage2_tlb.read_accesses            0                       # DTB read accesses
system.cpu0.dstage2_mmu.stage2_tlb.write_accesses            0                       # DTB write accesses
system.cpu0.dstage2_mmu.stage2_tlb.inst_accesses            0                       # ITB inst accesses
system.cpu0.dstage2_mmu.stage2_tlb.hits             0                       # DTB hits
system.cpu0.dstage2_mmu.stage2_tlb.misses            0                       # DTB misses
system.cpu0.dstage2_mmu.stage2_tlb.accesses            0                       # DTB accesses
system.cpu0.dtb.walker.walks                        0                       # Table walker walks requested
system.cpu0.dtb.walker.walkRequestOrigin_Requested::Data            0                       # Table walker requests started/completed, data/inst
system.cpu0.dtb.walker.walkRequestOrigin_Requested::Inst            0                       # Table walker requests started/completed, data/inst
system.cpu0.dtb.walker.walkRequestOrigin_Requested::total            0                       # Table walker requests started/completed, data/inst
system.cpu0.dtb.walker.walkRequestOrigin_Completed::Data            0                       # Table walker requests started/completed, data/inst
system.cpu0.dtb.walker.walkRequestOrigin_Completed::Inst            0                       # Table walker requests started/completed, data/inst
system.cpu0.dtb.walker.walkRequestOrigin_Completed::total            0                       # Table walker requests started/completed, data/inst
system.cpu0.dtb.walker.walkRequestOrigin::total            0                       # Table walker requests started/completed, data/inst
system.cpu0.dtb.inst_hits                           0                       # ITB inst hits
system.cpu0.dtb.inst_misses                         0                       # ITB inst misses
system.cpu0.dtb.read_hits                           0                       # DTB read hits
system.cpu0.dtb.read_misses                         0                       # DTB read misses
system.cpu0.dtb.write_hits                          0                       # DTB write hits
system.cpu0.dtb.write_misses                        0                       # DTB write misses
system.cpu0.dtb.flush_tlb                           0                       # Number of times complete TLB was flushed
system.cpu0.dtb.flush_tlb_mva                       0                       # Number of times TLB was flushed by MVA
system.cpu0.dtb.flush_tlb_mva_asid                  0                       # Number of times TLB was flushed by MVA & ASID
system.cpu0.dtb.flush_tlb_asid                      0                       # Number of times TLB was flushed by ASID
system.cpu0.dtb.flush_entries                       0                       # Number of entries that have been flushed from TLB
system.cpu0.dtb.align_faults                        0                       # Number of TLB faults due to alignment restrictions
system.cpu0.dtb.prefetch_faults                     0                       # Number of TLB faults due to prefetch
system.cpu0.dtb.domain_faults                       0                       # Number of TLB faults due to domain restrictions
system.cpu0.dtb.perms_faults                        0                       # Number of TLB faults due to permissions restrictions
system.cpu0.dtb.read_accesses                       0                       # DTB read accesses
system.cpu0.dtb.write_accesses                      0                       # DTB write accesses
system.cpu0.dtb.inst_accesses                       0                       # ITB inst accesses
system.cpu0.dtb.hits                                0                       # DTB hits
system.cpu0.dtb.misses                              0                       # DTB misses
system.cpu0.dtb.accesses                            0                       # DTB accesses
system.cpu0.istage2_mmu.stage2_tlb.walker.walks            0                       # Table walker walks requested
system.cpu0.istage2_mmu.stage2_tlb.walker.walkRequestOrigin_Requested::Data            0                       # Table walker requests started/completed, data/inst
system.cpu0.istage2_mmu.stage2_tlb.walker.walkRequestOrigin_Requested::Inst            0                       # Table walker requests started/completed, data/inst
system.cpu0.istage2_mmu.stage2_tlb.walker.walkRequestOrigin_Requested::total            0                       # Table walker requests started/completed, data/inst
system.cpu0.istage2_mmu.stage2_tlb.walker.walkRequestOrigin_Completed::Data            0                       # Table walker requests started/completed, data/inst
system.cpu0.istage2_mmu.stage2_tlb.walker.walkRequestOrigin_Completed::Inst            0                       # Table walker requests started/completed, data/inst
system.cpu0.istage2_mmu.stage2_tlb.walker.walkRequestOrigin_Completed::total            0                       # Table walker requests started/completed, data/inst
system.cpu0.istage2_mmu.stage2_tlb.walker.walkRequestOrigin::total            0                       # Table walker requests started/completed, data/inst
system.cpu0.istage2_mmu.stage2_tlb.inst_hits            0                       # ITB inst hits
system.cpu0.istage2_mmu.stage2_tlb.inst_misses            0                       # ITB inst misses
system.cpu0.istage2_mmu.stage2_tlb.read_hits            0                       # DTB read hits
system.cpu0.istage2_mmu.stage2_tlb.read_misses            0                       # DTB read misses
system.cpu0.istage2_mmu.stage2_tlb.write_hits            0                       # DTB write hits
system.cpu0.istage2_mmu.stage2_tlb.write_misses            0                       # DTB write misses
system.cpu0.istage2_mmu.stage2_tlb.flush_tlb            0                       # Number of times complete TLB was flushed
system.cpu0.istage2_mmu.stage2_tlb.flush_tlb_mva            0                       # Number of times TLB was flushed by MVA
system.cpu0.istage2_mmu.stage2_tlb.flush_tlb_mva_asid            0                       # Number of times TLB was flushed by MVA & ASID
system.cpu0.istage2_mmu.stage2_tlb.flush_tlb_asid            0                       # Number of times TLB was flushed by ASID
system.cpu0.istage2_mmu.stage2_tlb.flush_entries            0                       # Number of entries that have been flushed from TLB
system.cpu0.istage2_mmu.stage2_tlb.align_faults            0                       # Number of TLB faults due to alignment restrictions
system.cpu0.istage2_mmu.stage2_tlb.prefetch_faults            0                       # Number of TLB faults due to prefetch
system.cpu0.istage2_mmu.stage2_tlb.domain_faults            0                       # Number of TLB faults due to domain restrictions
system.cpu0.istage2_mmu.stage2_tlb.perms_faults            0                       # Number of TLB faults due to permissions restrictions
system.cpu0.istage2_mmu.stage2_tlb.read_accesses            0                       # DTB read accesses
system.cpu0.istage2_mmu.stage2_tlb.write_accesses            0                       # DTB write accesses
system.cpu0.istage2_mmu.stage2_tlb.inst_accesses            0                       # ITB inst accesses
system.cpu0.istage2_mmu.stage2_tlb.hits             0                       # DTB hits
system.cpu0.istage2_mmu.stage2_tlb.misses            0                       # DTB misses
system.cpu0.istage2_mmu.stage2_tlb.accesses            0                       # DTB accesses
system.cpu0.itb.walker.walks                        0                       # Table walker walks requested
system.cpu0.itb.walker.walkRequestOrigin_Requested::Data            0                       # Table walker requests started/completed, data/inst
system.cpu0.itb.walker.walkRequestOrigin_Requested::Inst            0                       # Table walker requests started/completed, data/inst
system.cpu0.itb.walker.walkRequestOrigin_Requested::total            0                       # Table walker requests started/completed, data/inst
system.cpu0.itb.walker.walkRequestOrigin_Completed::Data            0                       # Table walker requests started/completed, data/inst
system.cpu0.itb.walker.walkRequestOrigin_Completed::Inst            0                       # Table walker requests started/completed, data/inst
system.cpu0.itb.walker.walkRequestOrigin_Completed::total            0                       # Table walker requests started/completed, data/inst
system.cpu0.itb.walker.walkRequestOrigin::total            0                       # Table walker requests started/completed, data/inst
system.cpu0.itb.inst_hits                           0                       # ITB inst hits
system.cpu0.itb.inst_misses                         0                       # ITB inst misses
system.cpu0.itb.read_hits                           0                       # DTB read hits
system.cpu0.itb.read_misses                         0                       # DTB read misses
system.cpu0.itb.write_hits                          0                       # DTB write hits
system.cpu0.itb.write_misses                        0                       # DTB write misses
system.cpu0.itb.flush_tlb                           0                       # Number of times complete TLB was flushed
system.cpu0.itb.flush_tlb_mva                       0                       # Number of times TLB was flushed by MVA
system.cpu0.itb.flush_tlb_mva_asid                  0                       # Number of times TLB was flushed by MVA & ASID
system.cpu0.itb.flush_tlb_asid                      0                       # Number of times TLB was flushed by ASID
system.cpu0.itb.flush_entries                       0                       # Number of entries that have been flushed from TLB
system.cpu0.itb.align_faults                        0                       # Number of TLB faults due to alignment restrictions
system.cpu0.itb.prefetch_faults                     0                       # Number of TLB faults due to prefetch
system.cpu0.itb.domain_faults                       0                       # Number of TLB faults due to domain restrictions
system.cpu0.itb.perms_faults                        0                       # Number of TLB faults due to permissions restrictions
system.cpu0.itb.read_accesses                       0                       # DTB read accesses
system.cpu0.itb.write_accesses                      0                       # DTB write accesses
system.cpu0.itb.inst_accesses                       0                       # ITB inst accesses
system.cpu0.itb.hits                                0                       # DTB hits
system.cpu0.itb.misses                              0                       # DTB misses
system.cpu0.itb.accesses                            0                       # DTB accesses
system.cpu0.workload.num_syscalls                  44                       # Number of system calls
system.cpu0.numCycles                        80821675                       # number of cpu cycles simulated
system.cpu0.numWorkItemsStarted                     0                       # number of work items this cpu started
system.cpu0.numWorkItemsCompleted                   0                       # number of work items this cpu completed
system.cpu0.fetch.icacheStallCycles              8102                       # Number of cycles fetch is stalled on an Icache miss
system.cpu0.fetch.Insts                     202000440                       # Number of instructions fetch has processed
system.cpu0.fetch.Branches                   40399949                       # Number of branches that fetch encountered
system.cpu0.fetch.predictedBranches          40398261                       # Number of branches that fetch has predicted taken
system.cpu0.fetch.Cycles                     80804495                       # Number of cycles fetch has run and was not squashing or blocked
system.cpu0.fetch.SquashCycles                   1511                       # Number of cycles fetch has spent squashing
system.cpu0.fetch.PendingTrapStallCycles          149                       # Number of stall cycles due to pending traps
system.cpu0.fetch.CacheLines                     1882                       # Number of cache lines fetched
system.cpu0.fetch.IcacheSquashes                  246                       # Number of outstanding Icache misses that were squashed
system.cpu0.fetch.rateDist::samples          80813501                       # Number of instructions fetched each cycle (Total)
system.cpu0.fetch.rateDist::mean             2.499640                       # Number of instructions fetched each cycle (Total)
system.cpu0.fetch.rateDist::stdev            0.500927                       # Number of instructions fetched each cycle (Total)
system.cpu0.fetch.rateDist::underflows              0      0.00%      0.00% # Number of instructions fetched each cycle (Total)
system.cpu0.fetch.rateDist::0                   12297      0.02%      0.02% # Number of instructions fetched each cycle (Total)
system.cpu0.fetch.rateDist::1                     625      0.00%      0.02% # Number of instructions fetched each cycle (Total)
system.cpu0.fetch.rateDist::2                40397713     49.99%     50.00% # Number of instructions fetched each cycle (Total)
system.cpu0.fetch.rateDist::3                40402866     50.00%    100.00% # Number of instructions fetched each cycle (Total)
system.cpu0.fetch.rateDist::overflows               0      0.00%    100.00% # Number of instructions fetched each cycle (Total)
system.cpu0.fetch.rateDist::min_value               0                       # Number of instructions fetched each cycle (Total)
system.cpu0.fetch.rateDist::max_value               3                       # Number of instructions fetched each cycle (Total)
system.cpu0.fetch.rateDist::total            80813501                       # Number of instructions fetched each cycle (Total)
system.cpu0.fetch.branchRate                 0.499865                       # Number of branch fetches per cycle
system.cpu0.fetch.rate                       2.499335                       # Number of inst fetches per cycle
system.cpu0.decode.IdleCycles                    7922                       # Number of cycles decode is idle
system.cpu0.decode.BlockedCycles                 5047                       # Number of cycles decode is blocked
system.cpu0.decode.RunCycles                 80799076                       # Number of cycles decode is running
system.cpu0.decode.UnblockCycles                  894                       # Number of cycles decode is unblocking
system.cpu0.decode.SquashCycles                   562                       # Number of cycles decode is squashing
system.cpu0.decode.BranchResolved                 354                       # Number of times decode resolved a branch
system.cpu0.decode.BranchMispred                  200                       # Number of times decode detected a branch misprediction
system.cpu0.decode.DecodedInsts             202002170                       # Number of instructions handled by decode
system.cpu0.decode.SquashedInsts                  474                       # Number of squashed instructions handled by decode
system.cpu0.rename.SquashCycles                   562                       # Number of cycles rename is squashing
system.cpu0.rename.IdleCycles                    8617                       # Number of cycles rename is idle
system.cpu0.rename.BlockCycles                    652                       # Number of cycles rename is blocking
system.cpu0.rename.serializeStallCycles          1667                       # count of cycles rename stalled for serializing inst
system.cpu0.rename.RunCycles                 80799169                       # Number of cycles rename is running
system.cpu0.rename.UnblockCycles                 2834                       # Number of cycles rename is unblocking
system.cpu0.rename.RenamedInsts             202001121                       # Number of instructions processed by rename
system.cpu0.rename.IQFullEvents                    16                       # Number of times rename has blocked due to IQ full
system.cpu0.rename.LQFullEvents                    11                       # Number of times rename has blocked due to LQ full
system.cpu0.rename.SQFullEvents                  2671                       # Number of times rename has blocked due to SQ full
system.cpu0.rename.RenamedOperands          202002793                       # Number of destination operands rename has renamed
system.cpu0.rename.RenameLookups            929209679                       # Number of register rename lookups that rename has made
system.cpu0.rename.int_rename_lookups       202006249                       # Number of integer rename lookups
system.cpu0.rename.fp_rename_lookups               16                       # Number of floating rename lookups
system.cpu0.rename.CommittedMaps            201994766                       # Number of HB maps that are committed
system.cpu0.rename.UndoneMaps                    8027                       # Number of HB maps that are undone due to squashing
system.cpu0.rename.serializingInsts                46                       # count of serializing insts renamed
system.cpu0.rename.tempSerializingInsts            45                       # count of temporary serializing insts renamed
system.cpu0.rename.skidInsts                     1188                       # count of insts added to the skid buffer
system.cpu0.memDep0.insertedLoads            80795617                       # Number of loads inserted to the mem dependence unit.
system.cpu0.memDep0.insertedStores           40400288                       # Number of stores inserted to the mem dependence unit.
system.cpu0.memDep0.conflictingLoads         40396129                       # Number of conflicting loads.
system.cpu0.memDep0.conflictingStores        40396105                       # Number of conflicting stores.
system.cpu0.iq.iqInstsAdded                 201999136                       # Number of instructions added to the IQ (excludes non-spec)
system.cpu0.iq.iqNonSpecInstsAdded                 67                       # Number of non-speculative instructions added to the IQ
system.cpu0.iq.iqInstsIssued                201996703                       # Number of instructions issued
system.cpu0.iq.iqSquashedInstsIssued              538                       # Number of squashed instructions issued
system.cpu0.iq.iqSquashedInstsExamined           5480                       # Number of squashed instructions iterated over during squash; mainly for profiling
system.cpu0.iq.iqSquashedOperandsExamined        14240                       # Number of squashed operands that are examined and possibly removed from graph
system.cpu0.iq.iqSquashedNonSpecRemoved             4                       # Number of squashed non-spec instructions that were removed
system.cpu0.iq.issued_per_cycle::samples     80813501                       # Number of insts issued each cycle
system.cpu0.iq.issued_per_cycle::mean        2.499542                       # Number of insts issued each cycle
system.cpu0.iq.issued_per_cycle::stdev       0.707813                       # Number of insts issued each cycle
system.cpu0.iq.issued_per_cycle::underflows            0      0.00%      0.00% # Number of insts issued each cycle
system.cpu0.iq.issued_per_cycle::0              13298      0.02%      0.02% # Number of insts issued each cycle
system.cpu0.iq.issued_per_cycle::1           10102180     12.50%     12.52% # Number of insts issued each cycle
system.cpu0.iq.issued_per_cycle::2           20199546     25.00%     37.51% # Number of insts issued each cycle
system.cpu0.iq.issued_per_cycle::3           50498477     62.49%    100.00% # Number of insts issued each cycle
system.cpu0.iq.issued_per_cycle::overflows            0      0.00%    100.00% # Number of insts issued each cycle
system.cpu0.iq.issued_per_cycle::min_value            0                       # Number of insts issued each cycle
system.cpu0.iq.issued_per_cycle::max_value            3                       # Number of insts issued each cycle
system.cpu0.iq.issued_per_cycle::total       80813501                       # Number of insts issued each cycle
system.cpu0.iq.fu_full::No_OpClass                  0                       # attempts to use FU when none available
system.cpu0.iq.fu_full::IntAlu                      0                       # attempts to use FU when none available
system.cpu0.iq.fu_full::IntMult                     0                       # attempts to use FU when none available
system.cpu0.iq.fu_full::IntDiv                      0                       # attempts to use FU when none available
system.cpu0.iq.fu_full::FloatAdd                    0                       # attempts to use FU when none available
system.cpu0.iq.fu_full::FloatCmp                    0                       # attempts to use FU when none available
system.cpu0.iq.fu_full::FloatCvt                    0                       # attempts to use FU when none available
system.cpu0.iq.fu_full::FloatMult                   0                       # attempts to use FU when none available
system.cpu0.iq.fu_full::FloatDiv                    0                       # attempts to use FU when none available
system.cpu0.iq.fu_full::FloatSqrt                   0                       # attempts to use FU when none available
system.cpu0.iq.fu_full::SimdAdd                     0                       # attempts to use FU when none available
system.cpu0.iq.fu_full::SimdAddAcc                  0                       # attempts to use FU when none available
system.cpu0.iq.fu_full::SimdAlu                     0                       # attempts to use FU when none available
system.cpu0.iq.fu_full::SimdCmp                     0                       # attempts to use FU when none available
system.cpu0.iq.fu_full::SimdCvt                     0                       # attempts to use FU when none available
system.cpu0.iq.fu_full::SimdMisc                    0                       # attempts to use FU when none available
system.cpu0.iq.fu_full::SimdMult                    0                       # attempts to use FU when none available
system.cpu0.iq.fu_full::SimdMultAcc                 0                       # attempts to use FU when none available
system.cpu0.iq.fu_full::SimdShift                   0                       # attempts to use FU when none available
system.cpu0.iq.fu_full::SimdShiftAcc                0                       # attempts to use FU when none available
system.cpu0.iq.fu_full::SimdSqrt                    0                       # attempts to use FU when none available
system.cpu0.iq.fu_full::SimdFloatAdd                0                       # attempts to use FU when none available
system.cpu0.iq.fu_full::SimdFloatAlu                0                       # attempts to use FU when none available
system.cpu0.iq.fu_full::SimdFloatCmp                0                       # attempts to use FU when none available
system.cpu0.iq.fu_full::SimdFloatCvt                0                       # attempts to use FU when none available
system.cpu0.iq.fu_full::SimdFloatDiv                0                       # attempts to use FU when none available
system.cpu0.iq.fu_full::SimdFloatMisc               0                       # attempts to use FU when none available
system.cpu0.iq.fu_full::SimdFloatMult               0                       # attempts to use FU when none available
system.cpu0.iq.fu_full::SimdFloatMultAcc            0                       # attempts to use FU when none available
system.cpu0.iq.fu_full::SimdFloatSqrt               0                       # attempts to use FU when none available
system.cpu0.iq.fu_full::MemRead                     0                       # attempts to use FU when none available
system.cpu0.iq.fu_full::MemWrite                    0                       # attempts to use FU when none available
system.cpu0.iq.fu_full::IprAccess                   0                       # attempts to use FU when none available
system.cpu0.iq.fu_full::InstPrefetch                0                       # attempts to use FU when none available
system.cpu0.iq.FU_type_0::No_OpClass                0      0.00%      0.00% # Type of FU issued
system.cpu0.iq.FU_type_0::IntAlu             80801631     40.00%     40.00% # Type of FU issued
system.cpu0.iq.FU_type_0::IntMult                   6      0.00%     40.00% # Type of FU issued
system.cpu0.iq.FU_type_0::IntDiv                    0      0.00%     40.00% # Type of FU issued
system.cpu0.iq.FU_type_0::FloatAdd                  0      0.00%     40.00% # Type of FU issued
system.cpu0.iq.FU_type_0::FloatCmp                  0      0.00%     40.00% # Type of FU issued
system.cpu0.iq.FU_type_0::FloatCvt                  0      0.00%     40.00% # Type of FU issued
system.cpu0.iq.FU_type_0::FloatMult                 0      0.00%     40.00% # Type of FU issued
system.cpu0.iq.FU_type_0::FloatDiv                  0      0.00%     40.00% # Type of FU issued
system.cpu0.iq.FU_type_0::FloatSqrt                 0      0.00%     40.00% # Type of FU issued
system.cpu0.iq.FU_type_0::SimdAdd                   0      0.00%     40.00% # Type of FU issued
system.cpu0.iq.FU_type_0::SimdAddAcc                0      0.00%     40.00% # Type of FU issued
system.cpu0.iq.FU_type_0::SimdAlu                   0      0.00%     40.00% # Type of FU issued
system.cpu0.iq.FU_type_0::SimdCmp                   0      0.00%     40.00% # Type of FU issued
system.cpu0.iq.FU_type_0::SimdCvt                   0      0.00%     40.00% # Type of FU issued
system.cpu0.iq.FU_type_0::SimdMisc                  0      0.00%     40.00% # Type of FU issued
system.cpu0.iq.FU_type_0::SimdMult                  0      0.00%     40.00% # Type of FU issued
system.cpu0.iq.FU_type_0::SimdMultAcc               0      0.00%     40.00% # Type of FU issued
system.cpu0.iq.FU_type_0::SimdShift                 0      0.00%     40.00% # Type of FU issued
system.cpu0.iq.FU_type_0::SimdShiftAcc              0      0.00%     40.00% # Type of FU issued
system.cpu0.iq.FU_type_0::SimdSqrt                  0      0.00%     40.00% # Type of FU issued
system.cpu0.iq.FU_type_0::SimdFloatAdd              0      0.00%     40.00% # Type of FU issued
system.cpu0.iq.FU_type_0::SimdFloatAlu              0      0.00%     40.00% # Type of FU issued
system.cpu0.iq.FU_type_0::SimdFloatCmp              0      0.00%     40.00% # Type of FU issued
system.cpu0.iq.FU_type_0::SimdFloatCvt              0      0.00%     40.00% # Type of FU issued
system.cpu0.iq.FU_type_0::SimdFloatDiv              0      0.00%     40.00% # Type of FU issued
system.cpu0.iq.FU_type_0::SimdFloatMisc             3      0.00%     40.00% # Type of FU issued
system.cpu0.iq.FU_type_0::SimdFloatMult             0      0.00%     40.00% # Type of FU issued
system.cpu0.iq.FU_type_0::SimdFloatMultAcc            0      0.00%     40.00% # Type of FU issued
system.cpu0.iq.FU_type_0::SimdFloatSqrt             0      0.00%     40.00% # Type of FU issued
system.cpu0.iq.FU_type_0::MemRead            80795085     40.00%     80.00% # Type of FU issued
system.cpu0.iq.FU_type_0::MemWrite           40399978     20.00%    100.00% # Type of FU issued
system.cpu0.iq.FU_type_0::IprAccess                 0      0.00%    100.00% # Type of FU issued
system.cpu0.iq.FU_type_0::InstPrefetch              0      0.00%    100.00% # Type of FU issued
system.cpu0.iq.FU_type_0::total             201996703                       # Type of FU issued
system.cpu0.iq.rate                          2.499289                       # Inst issue rate
system.cpu0.iq.fu_busy_cnt                          0                       # FU busy when requested
system.cpu0.iq.fu_busy_rate                         0                       # FU busy rate (busy events/executed inst)
system.cpu0.iq.int_inst_queue_reads         484807413                       # Number of integer instruction queue reads
system.cpu0.iq.int_inst_queue_writes        202004838                       # Number of integer instruction queue writes
system.cpu0.iq.int_inst_queue_wakeup_accesses    201995875                       # Number of integer instruction queue wakeup accesses
system.cpu0.iq.fp_inst_queue_reads                 32                       # Number of floating instruction queue reads
system.cpu0.iq.fp_inst_queue_writes                16                       # Number of floating instruction queue writes
system.cpu0.iq.fp_inst_queue_wakeup_accesses           16                       # Number of floating instruction queue wakeup accesses
system.cpu0.iq.int_alu_accesses             201996687                       # Number of integer alu accesses
system.cpu0.iq.fp_alu_accesses                     16                       # Number of floating point alu accesses
system.cpu0.iew.lsq.thread0.forwLoads        40396451                       # Number of loads that had data forwarded from stores
system.cpu0.iew.lsq.thread0.invAddrLoads            0                       # Number of loads ignored due to an invalid address
system.cpu0.iew.lsq.thread0.squashedLoads         1615                       # Number of loads squashed
system.cpu0.iew.lsq.thread0.ignoredResponses            2                       # Number of memory responses ignored because the instruction is squashed
system.cpu0.iew.lsq.thread0.memOrderViolation          171                       # Number of memory ordering violations
system.cpu0.iew.lsq.thread0.squashedStores          607                       # Number of stores squashed
system.cpu0.iew.lsq.thread0.invAddrSwpfs            0                       # Number of software prefetches ignored due to an invalid address
system.cpu0.iew.lsq.thread0.blockedLoads            0                       # Number of blocked loads due to partial load-store forwarding
system.cpu0.iew.lsq.thread0.rescheduledLoads            5                       # Number of loads that were rescheduled
system.cpu0.iew.lsq.thread0.cacheBlocked            0                       # Number of times an access to memory failed due to the cache being blocked
system.cpu0.iew.iewIdleCycles                       0                       # Number of cycles IEW is idle
system.cpu0.iew.iewSquashCycles                   562                       # Number of cycles IEW is squashing
system.cpu0.iew.iewBlockCycles                    516                       # Number of cycles IEW is blocking
system.cpu0.iew.iewUnblockCycles                  136                       # Number of cycles IEW is unblocking
system.cpu0.iew.iewDispatchedInsts          201999222                       # Number of instructions dispatched to IQ
system.cpu0.iew.iewDispSquashedInsts              262                       # Number of squashed instructions skipped by dispatch
system.cpu0.iew.iewDispLoadInsts             80795617                       # Number of dispatched load instructions
system.cpu0.iew.iewDispStoreInsts            40400288                       # Number of dispatched store instructions
system.cpu0.iew.iewDispNonSpecInsts                41                       # Number of dispatched non-speculative instructions
system.cpu0.iew.iewIQFullEvents                    11                       # Number of times the IQ has become full, causing a stall
system.cpu0.iew.iewLSQFullEvents                    0                       # Number of times the LSQ has become full, causing a stall
system.cpu0.iew.memOrderViolationEvents           171                       # Number of memory order violations
system.cpu0.iew.predictedTakenIncorrect           105                       # Number of branches that were predicted taken incorrectly
system.cpu0.iew.predictedNotTakenIncorrect          297                       # Number of branches that were predicted not taken incorrectly
system.cpu0.iew.branchMispredicts                 402                       # Number of branch mispredicts detected at execute
system.cpu0.iew.iewExecutedInsts            201996171                       # Number of executed instructions
system.cpu0.iew.iewExecLoadInsts             80794978                       # Number of load instructions executed
system.cpu0.iew.iewExecSquashedInsts              532                       # Number of squashed instructions skipped in execute
system.cpu0.iew.exec_swp                            0                       # number of swp insts executed
system.cpu0.iew.exec_nop                           19                       # number of nop insts executed
system.cpu0.iew.exec_refs                   121194759                       # number of memory reference insts executed
system.cpu0.iew.exec_branches                40398322                       # Number of branches executed
system.cpu0.iew.exec_forward_branches             795                       # Number of forward branches executed
system.cpu0.iew.exec_backward_branches       40397223                       # Number of backward branches executed
system.cpu0.iew.exec_taken_forward_branches          294                       # Number of forward branches executed that is taken
system.cpu0.iew.exec_nottaken_forward_branches          501                       # Number of forward branches executed that is not taken
system.cpu0.iew.exec_taken_backward_branches     40396996                       # Number of backward branches executed that is taken
system.cpu0.iew.exec_nottaken_backward_branches          227                       # Number of backward branches executed that is not taken
system.cpu0.iew.exec_stores                  40399781                       # Number of stores executed
system.cpu0.iew.exec_rate                    2.499282                       # Inst execution rate
system.cpu0.iew.wb_sent                     201995960                       # cumulative count of insts sent to commit
system.cpu0.iew.wb_count                    201995891                       # cumulative count of insts written-back
system.cpu0.iew.wb_producers                121195490                       # num instructions producing a value
system.cpu0.iew.wb_consumers                121205301                       # num instructions consuming a value
system.cpu0.iew.wb_penalized                        0                       # number of instrctions required to write to 'other' IQ
system.cpu0.iew.wb_rate                      2.499279                       # insts written-back per cycle
system.cpu0.iew.wb_fanout                    0.999919                       # average fanout of values written-back
system.cpu0.iew.wb_penalized_rate                   0                       # fraction of instructions written-back that wrote to 'other' IQ
system.cpu0.commit.commitSquashedInsts           5498                       # The number of squashed insts skipped by commit
system.cpu0.commit.commitNonSpecStalls             63                       # The number of times commit has been forced to stall to communicate backwards
system.cpu0.commit.branchMispredicts              380                       # The number of times a branch was mispredicted
system.cpu0.commit.committed_per_cycle::samples     80812533                       # Number of insts commited each cycle
system.cpu0.commit.committed_per_cycle::mean     2.499535                       # Number of insts commited each cycle
system.cpu0.commit.committed_per_cycle::stdev     1.581342                       # Number of insts commited each cycle
system.cpu0.commit.committed_per_cycle::underflows            0      0.00%      0.00% # Number of insts commited each cycle
system.cpu0.commit.committed_per_cycle::0        14240      0.02%      0.02% # Number of insts commited each cycle
system.cpu0.commit.committed_per_cycle::1     40398700     49.99%     50.01% # Number of insts commited each cycle
system.cpu0.commit.committed_per_cycle::2         1268      0.00%     50.01% # Number of insts commited each cycle
system.cpu0.commit.committed_per_cycle::3     10100888     12.50%     62.51% # Number of insts commited each cycle
system.cpu0.commit.committed_per_cycle::4     20198046     24.99%     87.50% # Number of insts commited each cycle
system.cpu0.commit.committed_per_cycle::5     10099051     12.50%    100.00% # Number of insts commited each cycle
system.cpu0.commit.committed_per_cycle::6           73      0.00%    100.00% # Number of insts commited each cycle
system.cpu0.commit.committed_per_cycle::7          190      0.00%    100.00% # Number of insts commited each cycle
system.cpu0.commit.committed_per_cycle::8           77      0.00%    100.00% # Number of insts commited each cycle
system.cpu0.commit.committed_per_cycle::overflows            0      0.00%    100.00% # Number of insts commited each cycle
system.cpu0.commit.committed_per_cycle::min_value            0                       # Number of insts commited each cycle
system.cpu0.commit.committed_per_cycle::max_value            8                       # Number of insts commited each cycle
system.cpu0.commit.committed_per_cycle::total     80812533                       # Number of insts commited each cycle
system.cpu0.commit.committedInsts           201990413                       # Number of instructions committed
system.cpu0.commit.committedOps             201993723                       # Number of ops (including micro ops) committed
system.cpu0.commit.swp_count                        0                       # Number of s/w prefetches committed
system.cpu0.commit.refs                     121193683                       # Number of memory references committed
system.cpu0.commit.loads                     80794002                       # Number of loads committed
system.cpu0.commit.membars                         26                       # Number of memory barriers committed
system.cpu0.commit.branches                  40397904                       # Number of branches committed
system.cpu0.commit.fp_insts                        16                       # Number of committed floating point instructions.
system.cpu0.commit.int_insts                161596191                       # Number of committed integer instructions.
system.cpu0.commit.function_calls                 144                       # Number of function calls committed.
system.cpu0.commit.op_class_0::No_OpClass            0      0.00%      0.00% # Class of committed instruction
system.cpu0.commit.op_class_0::IntAlu        80800031     40.00%     40.00% # Class of committed instruction
system.cpu0.commit.op_class_0::IntMult              6      0.00%     40.00% # Class of committed instruction
system.cpu0.commit.op_class_0::IntDiv               0      0.00%     40.00% # Class of committed instruction
system.cpu0.commit.op_class_0::FloatAdd             0      0.00%     40.00% # Class of committed instruction
system.cpu0.commit.op_class_0::FloatCmp             0      0.00%     40.00% # Class of committed instruction
system.cpu0.commit.op_class_0::FloatCvt             0      0.00%     40.00% # Class of committed instruction
system.cpu0.commit.op_class_0::FloatMult            0      0.00%     40.00% # Class of committed instruction
system.cpu0.commit.op_class_0::FloatDiv             0      0.00%     40.00% # Class of committed instruction
system.cpu0.commit.op_class_0::FloatSqrt            0      0.00%     40.00% # Class of committed instruction
system.cpu0.commit.op_class_0::SimdAdd              0      0.00%     40.00% # Class of committed instruction
system.cpu0.commit.op_class_0::SimdAddAcc            0      0.00%     40.00% # Class of committed instruction
system.cpu0.commit.op_class_0::SimdAlu              0      0.00%     40.00% # Class of committed instruction
system.cpu0.commit.op_class_0::SimdCmp              0      0.00%     40.00% # Class of committed instruction
system.cpu0.commit.op_class_0::SimdCvt              0      0.00%     40.00% # Class of committed instruction
system.cpu0.commit.op_class_0::SimdMisc             0      0.00%     40.00% # Class of committed instruction
system.cpu0.commit.op_class_0::SimdMult             0      0.00%     40.00% # Class of committed instruction
system.cpu0.commit.op_class_0::SimdMultAcc            0      0.00%     40.00% # Class of committed instruction
system.cpu0.commit.op_class_0::SimdShift            0      0.00%     40.00% # Class of committed instruction
system.cpu0.commit.op_class_0::SimdShiftAcc            0      0.00%     40.00% # Class of committed instruction
system.cpu0.commit.op_class_0::SimdSqrt             0      0.00%     40.00% # Class of committed instruction
system.cpu0.commit.op_class_0::SimdFloatAdd            0      0.00%     40.00% # Class of committed instruction
system.cpu0.commit.op_class_0::SimdFloatAlu            0      0.00%     40.00% # Class of committed instruction
system.cpu0.commit.op_class_0::SimdFloatCmp            0      0.00%     40.00% # Class of committed instruction
system.cpu0.commit.op_class_0::SimdFloatCvt            0      0.00%     40.00% # Class of committed instruction
system.cpu0.commit.op_class_0::SimdFloatDiv            0      0.00%     40.00% # Class of committed instruction
system.cpu0.commit.op_class_0::SimdFloatMisc            3      0.00%     40.00% # Class of committed instruction
system.cpu0.commit.op_class_0::SimdFloatMult            0      0.00%     40.00% # Class of committed instruction
system.cpu0.commit.op_class_0::SimdFloatMultAcc            0      0.00%     40.00% # Class of committed instruction
system.cpu0.commit.op_class_0::SimdFloatSqrt            0      0.00%     40.00% # Class of committed instruction
system.cpu0.commit.op_class_0::MemRead       80794002     40.00%     80.00% # Class of committed instruction
system.cpu0.commit.op_class_0::MemWrite      40399681     20.00%    100.00% # Class of committed instruction
system.cpu0.commit.op_class_0::IprAccess            0      0.00%    100.00% # Class of committed instruction
system.cpu0.commit.op_class_0::InstPrefetch            0      0.00%    100.00% # Class of committed instruction
system.cpu0.commit.op_class_0::total        201993723                       # Class of committed instruction
system.cpu0.commit.bw_lim_events                   77                       # number cycles where commit BW limit reached
system.cpu0.rob.rob_reads                   282811546                       # The number of ROB reads
system.cpu0.rob.rob_writes                  403999415                       # The number of ROB writes
system.cpu0.timesIdled                            248                       # Number of times that the entire CPU went into an idle state and unscheduled itself
system.cpu0.idleCycles                           8174                       # Total number of cycles that the CPU has spent unscheduled due to idling
system.cpu0.committedInsts                  201990413                       # Number of Instructions Simulated
system.cpu0.committedOps                    201993723                       # Number of Ops (including micro ops) Simulated
system.cpu0.cpi                              0.400126                       # CPI: Cycles Per Instruction
system.cpu0.cpi_total                        0.400126                       # CPI: Total CPI of All Threads
system.cpu0.ipc                              2.499211                       # IPC: Instructions Per Cycle
system.cpu0.ipc_total                        2.499211                       # IPC: Total IPC of All Threads
system.cpu0.int_regfile_reads               201998500                       # number of integer regfile reads
system.cpu0.int_regfile_writes               80800706                       # number of integer regfile writes
system.cpu0.fp_regfile_reads                      176                       # number of floating regfile reads
system.cpu0.cc_regfile_reads                848372544                       # number of cc regfile reads
system.cpu0.cc_regfile_writes               121196397                       # number of cc regfile writes
system.cpu0.misc_regfile_reads              121200805                       # number of misc regfile reads
system.cpu0.misc_regfile_writes                    52                       # number of misc regfile writes
system.cpu0.dcache.tags.replacements               27                       # number of replacements
system.cpu0.dcache.tags.tagsinuse          125.201505                       # Cycle average of tags in use
system.cpu0.dcache.tags.total_refs           80795288                       # Total number of references to valid blocks.
system.cpu0.dcache.tags.sampled_refs              169                       # Sample count of references to valid blocks.
system.cpu0.dcache.tags.avg_refs         478078.627219                       # Average number of references to valid blocks.
system.cpu0.dcache.tags.warmup_cycle                0                       # Cycle when the warmup percentage was hit.
system.cpu0.dcache.tags.occ_blocks::cpu0.data   125.201505                       # Average occupied blocks per requestor
system.cpu0.dcache.tags.occ_percent::cpu0.data     0.244534                       # Average percentage of cache occupancy
system.cpu0.dcache.tags.occ_percent::total     0.244534                       # Average percentage of cache occupancy
system.cpu0.dcache.tags.occ_task_id_blocks::1024          142                       # Occupied blocks per task id
system.cpu0.dcache.tags.age_task_id_blocks_1024::0           22                       # Occupied blocks per task id
system.cpu0.dcache.tags.age_task_id_blocks_1024::4          120                       # Occupied blocks per task id
system.cpu0.dcache.tags.occ_task_id_percent::1024     0.277344                       # Percentage of cache occupancy per task id
system.cpu0.dcache.tags.tag_accesses        161596375                       # Number of tag accesses
system.cpu0.dcache.tags.data_accesses       161596375                       # Number of data accesses
system.cpu0.dcache.ReadReq_hits::cpu0.data     40398174                       # number of ReadReq hits
system.cpu0.dcache.ReadReq_hits::total       40398174                       # number of ReadReq hits
system.cpu0.dcache.WriteReq_hits::cpu0.data     40397253                       # number of WriteReq hits
system.cpu0.dcache.WriteReq_hits::total      40397253                       # number of WriteReq hits
system.cpu0.dcache.LoadLockedReq_hits::cpu0.data           22                       # number of LoadLockedReq hits
system.cpu0.dcache.LoadLockedReq_hits::total           22                       # number of LoadLockedReq hits
system.cpu0.dcache.StoreCondReq_hits::cpu0.data           24                       # number of StoreCondReq hits
system.cpu0.dcache.StoreCondReq_hits::total           24                       # number of StoreCondReq hits
system.cpu0.dcache.demand_hits::cpu0.data     80795427                       # number of demand (read+write) hits
system.cpu0.dcache.demand_hits::total        80795427                       # number of demand (read+write) hits
system.cpu0.dcache.overall_hits::cpu0.data     80795427                       # number of overall hits
system.cpu0.dcache.overall_hits::total       80795427                       # number of overall hits
system.cpu0.dcache.ReadReq_misses::cpu0.data          197                       # number of ReadReq misses
system.cpu0.dcache.ReadReq_misses::total          197                       # number of ReadReq misses
system.cpu0.dcache.WriteReq_misses::cpu0.data         2359                       # number of WriteReq misses
system.cpu0.dcache.WriteReq_misses::total         2359                       # number of WriteReq misses
system.cpu0.dcache.LoadLockedReq_misses::cpu0.data            3                       # number of LoadLockedReq misses
system.cpu0.dcache.LoadLockedReq_misses::total            3                       # number of LoadLockedReq misses
system.cpu0.dcache.StoreCondReq_misses::cpu0.data            1                       # number of StoreCondReq misses
system.cpu0.dcache.StoreCondReq_misses::total            1                       # number of StoreCondReq misses
system.cpu0.dcache.demand_misses::cpu0.data         2556                       # number of demand (read+write) misses
system.cpu0.dcache.demand_misses::total          2556                       # number of demand (read+write) misses
system.cpu0.dcache.overall_misses::cpu0.data         2556                       # number of overall misses
system.cpu0.dcache.overall_misses::total         2556                       # number of overall misses
system.cpu0.dcache.ReadReq_miss_latency::cpu0.data      9147490                       # number of ReadReq miss cycles
system.cpu0.dcache.ReadReq_miss_latency::total      9147490                       # number of ReadReq miss cycles
system.cpu0.dcache.WriteReq_miss_latency::cpu0.data    118222500                       # number of WriteReq miss cycles
system.cpu0.dcache.WriteReq_miss_latency::total    118222500                       # number of WriteReq miss cycles
system.cpu0.dcache.LoadLockedReq_miss_latency::cpu0.data       133500                       # number of LoadLockedReq miss cycles
system.cpu0.dcache.LoadLockedReq_miss_latency::total       133500                       # number of LoadLockedReq miss cycles
system.cpu0.dcache.StoreCondReq_miss_latency::cpu0.data         7500                       # number of StoreCondReq miss cycles
system.cpu0.dcache.StoreCondReq_miss_latency::total         7500                       # number of StoreCondReq miss cycles
system.cpu0.dcache.demand_miss_latency::cpu0.data    127369990                       # number of demand (read+write) miss cycles
system.cpu0.dcache.demand_miss_latency::total    127369990                       # number of demand (read+write) miss cycles
system.cpu0.dcache.overall_miss_latency::cpu0.data    127369990                       # number of overall miss cycles
system.cpu0.dcache.overall_miss_latency::total    127369990                       # number of overall miss cycles
system.cpu0.dcache.ReadReq_accesses::cpu0.data     40398371                       # number of ReadReq accesses(hits+misses)
system.cpu0.dcache.ReadReq_accesses::total     40398371                       # number of ReadReq accesses(hits+misses)
system.cpu0.dcache.WriteReq_accesses::cpu0.data     40399612                       # number of WriteReq accesses(hits+misses)
system.cpu0.dcache.WriteReq_accesses::total     40399612                       # number of WriteReq accesses(hits+misses)
system.cpu0.dcache.LoadLockedReq_accesses::cpu0.data           25                       # number of LoadLockedReq accesses(hits+misses)
system.cpu0.dcache.LoadLockedReq_accesses::total           25                       # number of LoadLockedReq accesses(hits+misses)
system.cpu0.dcache.StoreCondReq_accesses::cpu0.data           25                       # number of StoreCondReq accesses(hits+misses)
system.cpu0.dcache.StoreCondReq_accesses::total           25                       # number of StoreCondReq accesses(hits+misses)
system.cpu0.dcache.demand_accesses::cpu0.data     80797983                       # number of demand (read+write) accesses
system.cpu0.dcache.demand_accesses::total     80797983                       # number of demand (read+write) accesses
system.cpu0.dcache.overall_accesses::cpu0.data     80797983                       # number of overall (read+write) accesses
system.cpu0.dcache.overall_accesses::total     80797983                       # number of overall (read+write) accesses
system.cpu0.dcache.ReadReq_miss_rate::cpu0.data     0.000005                       # miss rate for ReadReq accesses
system.cpu0.dcache.ReadReq_miss_rate::total     0.000005                       # miss rate for ReadReq accesses
system.cpu0.dcache.WriteReq_miss_rate::cpu0.data     0.000058                       # miss rate for WriteReq accesses
system.cpu0.dcache.WriteReq_miss_rate::total     0.000058                       # miss rate for WriteReq accesses
system.cpu0.dcache.LoadLockedReq_miss_rate::cpu0.data     0.120000                       # miss rate for LoadLockedReq accesses
system.cpu0.dcache.LoadLockedReq_miss_rate::total     0.120000                       # miss rate for LoadLockedReq accesses
system.cpu0.dcache.StoreCondReq_miss_rate::cpu0.data     0.040000                       # miss rate for StoreCondReq accesses
system.cpu0.dcache.StoreCondReq_miss_rate::total     0.040000                       # miss rate for StoreCondReq accesses
system.cpu0.dcache.demand_miss_rate::cpu0.data     0.000032                       # miss rate for demand accesses
system.cpu0.dcache.demand_miss_rate::total     0.000032                       # miss rate for demand accesses
system.cpu0.dcache.overall_miss_rate::cpu0.data     0.000032                       # miss rate for overall accesses
system.cpu0.dcache.overall_miss_rate::total     0.000032                       # miss rate for overall accesses
system.cpu0.dcache.ReadReq_avg_miss_latency::cpu0.data 46433.959391                       # average ReadReq miss latency
system.cpu0.dcache.ReadReq_avg_miss_latency::total 46433.959391                       # average ReadReq miss latency
system.cpu0.dcache.WriteReq_avg_miss_latency::cpu0.data 50115.515049                       # average WriteReq miss latency
system.cpu0.dcache.WriteReq_avg_miss_latency::total 50115.515049                       # average WriteReq miss latency
system.cpu0.dcache.LoadLockedReq_avg_miss_latency::cpu0.data        44500                       # average LoadLockedReq miss latency
system.cpu0.dcache.LoadLockedReq_avg_miss_latency::total        44500                       # average LoadLockedReq miss latency
system.cpu0.dcache.StoreCondReq_avg_miss_latency::cpu0.data         7500                       # average StoreCondReq miss latency
system.cpu0.dcache.StoreCondReq_avg_miss_latency::total         7500                       # average StoreCondReq miss latency
system.cpu0.dcache.demand_avg_miss_latency::cpu0.data 49831.764476                       # average overall miss latency
system.cpu0.dcache.demand_avg_miss_latency::total 49831.764476                       # average overall miss latency
system.cpu0.dcache.overall_avg_miss_latency::cpu0.data 49831.764476                       # average overall miss latency
system.cpu0.dcache.overall_avg_miss_latency::total 49831.764476                       # average overall miss latency
system.cpu0.dcache.blocked_cycles::no_mshrs            0                       # number of cycles access was blocked
system.cpu0.dcache.blocked_cycles::no_targets            0                       # number of cycles access was blocked
system.cpu0.dcache.blocked::no_mshrs                0                       # number of cycles access was blocked
system.cpu0.dcache.blocked::no_targets              0                       # number of cycles access was blocked
system.cpu0.dcache.avg_blocked_cycles::no_mshrs          nan                       # average number of cycles each access was blocked
system.cpu0.dcache.avg_blocked_cycles::no_targets          nan                       # average number of cycles each access was blocked
system.cpu0.dcache.fast_writes                      0                       # number of fast writes performed
system.cpu0.dcache.cache_copies                     0                       # number of cache copies performed
system.cpu0.dcache.writebacks::writebacks           10                       # number of writebacks
system.cpu0.dcache.writebacks::total               10                       # number of writebacks
system.cpu0.dcache.ReadReq_mshr_hits::cpu0.data           65                       # number of ReadReq MSHR hits
system.cpu0.dcache.ReadReq_mshr_hits::total           65                       # number of ReadReq MSHR hits
system.cpu0.dcache.WriteReq_mshr_hits::cpu0.data         2179                       # number of WriteReq MSHR hits
system.cpu0.dcache.WriteReq_mshr_hits::total         2179                       # number of WriteReq MSHR hits
system.cpu0.dcache.LoadLockedReq_mshr_hits::cpu0.data            3                       # number of LoadLockedReq MSHR hits
system.cpu0.dcache.LoadLockedReq_mshr_hits::total            3                       # number of LoadLockedReq MSHR hits
system.cpu0.dcache.demand_mshr_hits::cpu0.data         2244                       # number of demand (read+write) MSHR hits
system.cpu0.dcache.demand_mshr_hits::total         2244                       # number of demand (read+write) MSHR hits
system.cpu0.dcache.overall_mshr_hits::cpu0.data         2244                       # number of overall MSHR hits
system.cpu0.dcache.overall_mshr_hits::total         2244                       # number of overall MSHR hits
system.cpu0.dcache.ReadReq_mshr_misses::cpu0.data          132                       # number of ReadReq MSHR misses
system.cpu0.dcache.ReadReq_mshr_misses::total          132                       # number of ReadReq MSHR misses
system.cpu0.dcache.WriteReq_mshr_misses::cpu0.data          180                       # number of WriteReq MSHR misses
system.cpu0.dcache.WriteReq_mshr_misses::total          180                       # number of WriteReq MSHR misses
system.cpu0.dcache.StoreCondReq_mshr_misses::cpu0.data            1                       # number of StoreCondReq MSHR misses
system.cpu0.dcache.StoreCondReq_mshr_misses::total            1                       # number of StoreCondReq MSHR misses
system.cpu0.dcache.demand_mshr_misses::cpu0.data          312                       # number of demand (read+write) MSHR misses
system.cpu0.dcache.demand_mshr_misses::total          312                       # number of demand (read+write) MSHR misses
system.cpu0.dcache.overall_mshr_misses::cpu0.data          312                       # number of overall MSHR misses
system.cpu0.dcache.overall_mshr_misses::total          312                       # number of overall MSHR misses
system.cpu0.dcache.ReadReq_mshr_miss_latency::cpu0.data      6063006                       # number of ReadReq MSHR miss cycles
system.cpu0.dcache.ReadReq_mshr_miss_latency::total      6063006                       # number of ReadReq MSHR miss cycles
system.cpu0.dcache.WriteReq_mshr_miss_latency::cpu0.data      9801500                       # number of WriteReq MSHR miss cycles
system.cpu0.dcache.WriteReq_mshr_miss_latency::total      9801500                       # number of WriteReq MSHR miss cycles
system.cpu0.dcache.StoreCondReq_mshr_miss_latency::cpu0.data         4500                       # number of StoreCondReq MSHR miss cycles
system.cpu0.dcache.StoreCondReq_mshr_miss_latency::total         4500                       # number of StoreCondReq MSHR miss cycles
system.cpu0.dcache.demand_mshr_miss_latency::cpu0.data     15864506                       # number of demand (read+write) MSHR miss cycles
system.cpu0.dcache.demand_mshr_miss_latency::total     15864506                       # number of demand (read+write) MSHR miss cycles
system.cpu0.dcache.overall_mshr_miss_latency::cpu0.data     15864506                       # number of overall MSHR miss cycles
system.cpu0.dcache.overall_mshr_miss_latency::total     15864506                       # number of overall MSHR miss cycles
system.cpu0.dcache.ReadReq_mshr_miss_rate::cpu0.data     0.000003                       # mshr miss rate for ReadReq accesses
system.cpu0.dcache.ReadReq_mshr_miss_rate::total     0.000003                       # mshr miss rate for ReadReq accesses
system.cpu0.dcache.WriteReq_mshr_miss_rate::cpu0.data     0.000004                       # mshr miss rate for WriteReq accesses
system.cpu0.dcache.WriteReq_mshr_miss_rate::total     0.000004                       # mshr miss rate for WriteReq accesses
system.cpu0.dcache.StoreCondReq_mshr_miss_rate::cpu0.data     0.040000                       # mshr miss rate for StoreCondReq accesses
system.cpu0.dcache.StoreCondReq_mshr_miss_rate::total     0.040000                       # mshr miss rate for StoreCondReq accesses
system.cpu0.dcache.demand_mshr_miss_rate::cpu0.data     0.000004                       # mshr miss rate for demand accesses
system.cpu0.dcache.demand_mshr_miss_rate::total     0.000004                       # mshr miss rate for demand accesses
system.cpu0.dcache.overall_mshr_miss_rate::cpu0.data     0.000004                       # mshr miss rate for overall accesses
system.cpu0.dcache.overall_mshr_miss_rate::total     0.000004                       # mshr miss rate for overall accesses
system.cpu0.dcache.ReadReq_avg_mshr_miss_latency::cpu0.data 45931.863636                       # average ReadReq mshr miss latency
system.cpu0.dcache.ReadReq_avg_mshr_miss_latency::total 45931.863636                       # average ReadReq mshr miss latency
system.cpu0.dcache.WriteReq_avg_mshr_miss_latency::cpu0.data 54452.777778                       # average WriteReq mshr miss latency
system.cpu0.dcache.WriteReq_avg_mshr_miss_latency::total 54452.777778                       # average WriteReq mshr miss latency
system.cpu0.dcache.StoreCondReq_avg_mshr_miss_latency::cpu0.data         4500                       # average StoreCondReq mshr miss latency
system.cpu0.dcache.StoreCondReq_avg_mshr_miss_latency::total         4500                       # average StoreCondReq mshr miss latency
system.cpu0.dcache.demand_avg_mshr_miss_latency::cpu0.data 50847.775641                       # average overall mshr miss latency
system.cpu0.dcache.demand_avg_mshr_miss_latency::total 50847.775641                       # average overall mshr miss latency
system.cpu0.dcache.overall_avg_mshr_miss_latency::cpu0.data 50847.775641                       # average overall mshr miss latency
system.cpu0.dcache.overall_avg_mshr_miss_latency::total 50847.775641                       # average overall mshr miss latency
system.cpu0.dcache.no_allocate_misses               0                       # Number of misses that were no-allocate
system.cpu0.icache.tags.replacements               62                       # number of replacements
system.cpu0.icache.tags.tagsinuse          287.960170                       # Cycle average of tags in use
system.cpu0.icache.tags.total_refs               1443                       # Total number of references to valid blocks.
system.cpu0.icache.tags.sampled_refs              380                       # Sample count of references to valid blocks.
system.cpu0.icache.tags.avg_refs             3.797368                       # Average number of references to valid blocks.
system.cpu0.icache.tags.warmup_cycle                0                       # Cycle when the warmup percentage was hit.
system.cpu0.icache.tags.occ_blocks::cpu0.inst   287.960170                       # Average occupied blocks per requestor
system.cpu0.icache.tags.occ_percent::cpu0.inst     0.562422                       # Average percentage of cache occupancy
system.cpu0.icache.tags.occ_percent::total     0.562422                       # Average percentage of cache occupancy
system.cpu0.icache.tags.occ_task_id_blocks::1024          318                       # Occupied blocks per task id
system.cpu0.icache.tags.age_task_id_blocks_1024::0           43                       # Occupied blocks per task id
system.cpu0.icache.tags.age_task_id_blocks_1024::4          275                       # Occupied blocks per task id
system.cpu0.icache.tags.occ_task_id_percent::1024     0.621094                       # Percentage of cache occupancy per task id
system.cpu0.icache.tags.tag_accesses             4144                       # Number of tag accesses
system.cpu0.icache.tags.data_accesses            4144                       # Number of data accesses
system.cpu0.icache.ReadReq_hits::cpu0.inst         1443                       # number of ReadReq hits
system.cpu0.icache.ReadReq_hits::total           1443                       # number of ReadReq hits
system.cpu0.icache.demand_hits::cpu0.inst         1443                       # number of demand (read+write) hits
system.cpu0.icache.demand_hits::total            1443                       # number of demand (read+write) hits
system.cpu0.icache.overall_hits::cpu0.inst         1443                       # number of overall hits
system.cpu0.icache.overall_hits::total           1443                       # number of overall hits
system.cpu0.icache.ReadReq_misses::cpu0.inst          439                       # number of ReadReq misses
system.cpu0.icache.ReadReq_misses::total          439                       # number of ReadReq misses
system.cpu0.icache.demand_misses::cpu0.inst          439                       # number of demand (read+write) misses
system.cpu0.icache.demand_misses::total           439                       # number of demand (read+write) misses
system.cpu0.icache.overall_misses::cpu0.inst          439                       # number of overall misses
system.cpu0.icache.overall_misses::total          439                       # number of overall misses
system.cpu0.icache.ReadReq_miss_latency::cpu0.inst     22925498                       # number of ReadReq miss cycles
system.cpu0.icache.ReadReq_miss_latency::total     22925498                       # number of ReadReq miss cycles
system.cpu0.icache.demand_miss_latency::cpu0.inst     22925498                       # number of demand (read+write) miss cycles
system.cpu0.icache.demand_miss_latency::total     22925498                       # number of demand (read+write) miss cycles
system.cpu0.icache.overall_miss_latency::cpu0.inst     22925498                       # number of overall miss cycles
system.cpu0.icache.overall_miss_latency::total     22925498                       # number of overall miss cycles
system.cpu0.icache.ReadReq_accesses::cpu0.inst         1882                       # number of ReadReq accesses(hits+misses)
system.cpu0.icache.ReadReq_accesses::total         1882                       # number of ReadReq accesses(hits+misses)
system.cpu0.icache.demand_accesses::cpu0.inst         1882                       # number of demand (read+write) accesses
system.cpu0.icache.demand_accesses::total         1882                       # number of demand (read+write) accesses
system.cpu0.icache.overall_accesses::cpu0.inst         1882                       # number of overall (read+write) accesses
system.cpu0.icache.overall_accesses::total         1882                       # number of overall (read+write) accesses
system.cpu0.icache.ReadReq_miss_rate::cpu0.inst     0.233262                       # miss rate for ReadReq accesses
system.cpu0.icache.ReadReq_miss_rate::total     0.233262                       # miss rate for ReadReq accesses
system.cpu0.icache.demand_miss_rate::cpu0.inst     0.233262                       # miss rate for demand accesses
system.cpu0.icache.demand_miss_rate::total     0.233262                       # miss rate for demand accesses
system.cpu0.icache.overall_miss_rate::cpu0.inst     0.233262                       # miss rate for overall accesses
system.cpu0.icache.overall_miss_rate::total     0.233262                       # miss rate for overall accesses
system.cpu0.icache.ReadReq_avg_miss_latency::cpu0.inst 52222.091116                       # average ReadReq miss latency
system.cpu0.icache.ReadReq_avg_miss_latency::total 52222.091116                       # average ReadReq miss latency
system.cpu0.icache.demand_avg_miss_latency::cpu0.inst 52222.091116                       # average overall miss latency
system.cpu0.icache.demand_avg_miss_latency::total 52222.091116                       # average overall miss latency
system.cpu0.icache.overall_avg_miss_latency::cpu0.inst 52222.091116                       # average overall miss latency
system.cpu0.icache.overall_avg_miss_latency::total 52222.091116                       # average overall miss latency
system.cpu0.icache.blocked_cycles::no_mshrs           11                       # number of cycles access was blocked
system.cpu0.icache.blocked_cycles::no_targets            0                       # number of cycles access was blocked
system.cpu0.icache.blocked::no_mshrs                1                       # number of cycles access was blocked
system.cpu0.icache.blocked::no_targets              0                       # number of cycles access was blocked
system.cpu0.icache.avg_blocked_cycles::no_mshrs           11                       # average number of cycles each access was blocked
system.cpu0.icache.avg_blocked_cycles::no_targets          nan                       # average number of cycles each access was blocked
system.cpu0.icache.fast_writes                      0                       # number of fast writes performed
system.cpu0.icache.cache_copies                     0                       # number of cache copies performed
system.cpu0.icache.ReadReq_mshr_hits::cpu0.inst           59                       # number of ReadReq MSHR hits
system.cpu0.icache.ReadReq_mshr_hits::total           59                       # number of ReadReq MSHR hits
system.cpu0.icache.demand_mshr_hits::cpu0.inst           59                       # number of demand (read+write) MSHR hits
system.cpu0.icache.demand_mshr_hits::total           59                       # number of demand (read+write) MSHR hits
system.cpu0.icache.overall_mshr_hits::cpu0.inst           59                       # number of overall MSHR hits
system.cpu0.icache.overall_mshr_hits::total           59                       # number of overall MSHR hits
system.cpu0.icache.ReadReq_mshr_misses::cpu0.inst          380                       # number of ReadReq MSHR misses
system.cpu0.icache.ReadReq_mshr_misses::total          380                       # number of ReadReq MSHR misses
system.cpu0.icache.demand_mshr_misses::cpu0.inst          380                       # number of demand (read+write) MSHR misses
system.cpu0.icache.demand_mshr_misses::total          380                       # number of demand (read+write) MSHR misses
system.cpu0.icache.overall_mshr_misses::cpu0.inst          380                       # number of overall MSHR misses
system.cpu0.icache.overall_mshr_misses::total          380                       # number of overall MSHR misses
system.cpu0.icache.ReadReq_mshr_miss_latency::cpu0.inst     19744002                       # number of ReadReq MSHR miss cycles
system.cpu0.icache.ReadReq_mshr_miss_latency::total     19744002                       # number of ReadReq MSHR miss cycles
system.cpu0.icache.demand_mshr_miss_latency::cpu0.inst     19744002                       # number of demand (read+write) MSHR miss cycles
system.cpu0.icache.demand_mshr_miss_latency::total     19744002                       # number of demand (read+write) MSHR miss cycles
system.cpu0.icache.overall_mshr_miss_latency::cpu0.inst     19744002                       # number of overall MSHR miss cycles
system.cpu0.icache.overall_mshr_miss_latency::total     19744002                       # number of overall MSHR miss cycles
system.cpu0.icache.ReadReq_mshr_miss_rate::cpu0.inst     0.201913                       # mshr miss rate for ReadReq accesses
[...]
system.l2.ReadReq_avg_miss_latency::cpu1.inst 53119.217082                       # average ReadReq miss latency
system.l2.ReadReq_avg_miss_latency::cpu1.data 53218.543046                       # average ReadReq miss latency
system.l2.ReadReq_avg_miss_latency::total 53373.159683                       # average ReadReq miss latency
system.l2.ReadExReq_avg_miss_latency::cpu0.data 53251.412429                       # average ReadExReq miss latency
system.l2.ReadExReq_avg_miss_latency::cpu1.data 53000.718907                       # average ReadExReq miss latency
system.l2.ReadExReq_avg_miss_latency::total 53015.714769                       # average ReadExReq miss latency
system.l2.demand_avg_miss_latency::cpu0.inst 53442.693410                       # average overall miss latency
system.l2.demand_avg_miss_latency::cpu0.data 53548.387097                       # average overall miss latency
system.l2.demand_avg_miss_latency::cpu1.inst 53119.217082                       # average overall miss latency
system.l2.demand_avg_miss_latency::cpu1.data 53011.933174                       # average overall miss latency
system.l2.demand_avg_miss_latency::total 53097.865695                       # average overall miss latency
system.l2.overall_avg_miss_latency::cpu0.inst 53442.693410                       # average overall miss latency
system.l2.overall_avg_miss_latency::cpu0.data 53548.387097                       # average overall miss latency
system.l2.overall_avg_miss_latency::cpu1.inst 53119.217082                       # average overall miss latency
system.l2.overall_avg_miss_latency::cpu1.data 53011.933174                       # average overall miss latency
system.l2.overall_avg_miss_latency::total 53097.865695                       # average overall miss latency
system.l2.blocked_cycles::no_mshrs                  0                       # number of cycles access was blocked
system.l2.blocked_cycles::no_targets                0                       # number of cycles access was blocked
system.l2.blocked::no_mshrs                         0                       # number of cycles access was blocked
system.l2.blocked::no_targets                       0                       # number of cycles access was blocked
system.l2.avg_blocked_cycles::no_mshrs            nan                       # average number of cycles each access was blocked
system.l2.avg_blocked_cycles::no_targets          nan                       # average number of cycles each access was blocked
system.l2.fast_writes                               0                       # number of fast writes performed
system.l2.cache_copies                              0                       # number of cache copies performed
system.l2.ReadReq_mshr_hits::cpu0.inst              2                       # number of ReadReq MSHR hits
system.l2.ReadReq_mshr_hits::cpu0.data              6                       # number of ReadReq MSHR hits
system.l2.ReadReq_mshr_hits::total                  8                       # number of ReadReq MSHR hits
system.l2.demand_mshr_hits::cpu0.inst               2                       # number of demand (read+write) MSHR hits
system.l2.demand_mshr_hits::cpu0.data               6                       # number of demand (read+write) MSHR hits
system.l2.demand_mshr_hits::total                   8                       # number of demand (read+write) MSHR hits
system.l2.overall_mshr_hits::cpu0.inst              2                       # number of overall MSHR hits
system.l2.overall_mshr_hits::cpu0.data              6                       # number of overall MSHR hits
system.l2.overall_mshr_hits::total                  8                       # number of overall MSHR hits
system.l2.ReadReq_mshr_misses::cpu0.inst          347                       # number of ReadReq MSHR misses
system.l2.ReadReq_mshr_misses::cpu0.data           96                       # number of ReadReq MSHR misses
system.l2.ReadReq_mshr_misses::cpu1.inst          281                       # number of ReadReq MSHR misses
system.l2.ReadReq_mshr_misses::cpu1.data          151                       # number of ReadReq MSHR misses
system.l2.ReadReq_mshr_misses::total              875                       # number of ReadReq MSHR misses
system.l2.ReadExReq_mshr_misses::cpu0.data          177                       # number of ReadExReq MSHR misses
system.l2.ReadExReq_mshr_misses::cpu1.data         2782                       # number of ReadExReq MSHR misses
system.l2.ReadExReq_mshr_misses::total           2959                       # number of ReadExReq MSHR misses
system.l2.demand_mshr_misses::cpu0.inst           347                       # number of demand (read+write) MSHR misses
system.l2.demand_mshr_misses::cpu0.data           273                       # number of demand (read+write) MSHR misses
system.l2.demand_mshr_misses::cpu1.inst           281                       # number of demand (read+write) MSHR misses
system.l2.demand_mshr_misses::cpu1.data          2933                       # number of demand (read+write) MSHR misses
system.l2.demand_mshr_misses::total              3834                       # number of demand (read+write) MSHR misses
system.l2.overall_mshr_misses::cpu0.inst          347                       # number of overall MSHR misses
system.l2.overall_mshr_misses::cpu0.data          273                       # number of overall MSHR misses
system.l2.overall_mshr_misses::cpu1.inst          281                       # number of overall MSHR misses
system.l2.overall_mshr_misses::cpu1.data         2933                       # number of overall MSHR misses
system.l2.overall_mshr_misses::total             3834                       # number of overall MSHR misses
system.l2.ReadReq_mshr_miss_latency::cpu0.inst     14241000                       # number of ReadReq MSHR miss cycles
system.l2.ReadReq_mshr_miss_latency::cpu0.data      4055000                       # number of ReadReq MSHR miss cycles
system.l2.ReadReq_mshr_miss_latency::cpu1.inst     11425500                       # number of ReadReq MSHR miss cycles
system.l2.ReadReq_mshr_miss_latency::cpu1.data      6154500                       # number of ReadReq MSHR miss cycles
system.l2.ReadReq_mshr_miss_latency::total     35876000                       # number of ReadReq MSHR miss cycles
system.l2.ReadExReq_mshr_miss_latency::cpu0.data      7220000                       # number of ReadExReq MSHR miss cycles
system.l2.ReadExReq_mshr_miss_latency::cpu1.data    112674000                       # number of ReadExReq MSHR miss cycles
system.l2.ReadExReq_mshr_miss_latency::total    119894000                       # number of ReadExReq MSHR miss cycles
system.l2.demand_mshr_miss_latency::cpu0.inst     14241000                       # number of demand (read+write) MSHR miss cycles
system.l2.demand_mshr_miss_latency::cpu0.data     11275000                       # number of demand (read+write) MSHR miss cycles
system.l2.demand_mshr_miss_latency::cpu1.inst     11425500                       # number of demand (read+write) MSHR miss cycles
system.l2.demand_mshr_miss_latency::cpu1.data    118828500                       # number of demand (read+write) MSHR miss cycles
system.l2.demand_mshr_miss_latency::total    155770000                       # number of demand (read+write) MSHR miss cycles
system.l2.overall_mshr_miss_latency::cpu0.inst     14241000                       # number of overall MSHR miss cycles
system.l2.overall_mshr_miss_latency::cpu0.data     11275000                       # number of overall MSHR miss cycles
system.l2.overall_mshr_miss_latency::cpu1.inst     11425500                       # number of overall MSHR miss cycles
system.l2.overall_mshr_miss_latency::cpu1.data    118828500                       # number of overall MSHR miss cycles
system.l2.overall_mshr_miss_latency::total    155770000                       # number of overall MSHR miss cycles
system.l2.ReadReq_mshr_miss_rate::cpu0.inst     0.913158                       # mshr miss rate for ReadReq accesses
system.l2.ReadReq_mshr_miss_rate::cpu0.data     0.750000                       # mshr miss rate for ReadReq accesses
system.l2.ReadReq_mshr_miss_rate::cpu1.inst     0.556436                       # mshr miss rate for ReadReq accesses
system.l2.ReadReq_mshr_miss_rate::cpu1.data     0.000363                       # mshr miss rate for ReadReq accesses
system.l2.ReadReq_mshr_miss_rate::total      0.002098                       # mshr miss rate for ReadReq accesses
system.l2.ReadExReq_mshr_miss_rate::cpu0.data            1                       # mshr miss rate for ReadExReq accesses
system.l2.ReadExReq_mshr_miss_rate::cpu1.data     0.997133                       # mshr miss rate for ReadExReq accesses
system.l2.ReadExReq_mshr_miss_rate::total     0.997304                       # mshr miss rate for ReadExReq accesses
system.l2.demand_mshr_miss_rate::cpu0.inst     0.913158                       # mshr miss rate for demand accesses
system.l2.demand_mshr_miss_rate::cpu0.data     0.895082                       # mshr miss rate for demand accesses
system.l2.demand_mshr_miss_rate::cpu1.inst     0.556436                       # mshr miss rate for demand accesses
system.l2.demand_mshr_miss_rate::cpu1.data     0.007004                       # mshr miss rate for demand accesses
system.l2.demand_mshr_miss_rate::total       0.009130                       # mshr miss rate for demand accesses
system.l2.overall_mshr_miss_rate::cpu0.inst     0.913158                       # mshr miss rate for overall accesses
system.l2.overall_mshr_miss_rate::cpu0.data     0.895082                       # mshr miss rate for overall accesses
system.l2.overall_mshr_miss_rate::cpu1.inst     0.556436                       # mshr miss rate for overall accesses
system.l2.overall_mshr_miss_rate::cpu1.data     0.007004                       # mshr miss rate for overall accesses
system.l2.overall_mshr_miss_rate::total      0.009130                       # mshr miss rate for overall accesses
system.l2.ReadReq_avg_mshr_miss_latency::cpu0.inst 41040.345821                       # average ReadReq mshr miss latency
system.l2.ReadReq_avg_mshr_miss_latency::cpu0.data 42239.583333                       # average ReadReq mshr miss latency
system.l2.ReadReq_avg_mshr_miss_latency::cpu1.inst 40660.142349                       # average ReadReq mshr miss latency
system.l2.ReadReq_avg_mshr_miss_latency::cpu1.data 40758.278146                       # average ReadReq mshr miss latency
system.l2.ReadReq_avg_mshr_miss_latency::total 41001.142857                       # average ReadReq mshr miss latency
system.l2.ReadExReq_avg_mshr_miss_latency::cpu0.data 40790.960452                       # average ReadExReq mshr miss latency
system.l2.ReadExReq_avg_mshr_miss_latency::cpu1.data 40501.078361                       # average ReadExReq mshr miss latency
system.l2.ReadExReq_avg_mshr_miss_latency::total 40518.418385                       # average ReadExReq mshr miss latency
system.l2.demand_avg_mshr_miss_latency::cpu0.inst 41040.345821                       # average overall mshr miss latency
system.l2.demand_avg_mshr_miss_latency::cpu0.data 41300.366300                       # average overall mshr miss latency
system.l2.demand_avg_mshr_miss_latency::cpu1.inst 40660.142349                       # average overall mshr miss latency
system.l2.demand_avg_mshr_miss_latency::cpu1.data 40514.319809                       # average overall mshr miss latency
system.l2.demand_avg_mshr_miss_latency::total 40628.586333                       # average overall mshr miss latency
system.l2.overall_avg_mshr_miss_latency::cpu0.inst 41040.345821                       # average overall mshr miss latency
system.l2.overall_avg_mshr_miss_latency::cpu0.data 41300.366300                       # average overall mshr miss latency
system.l2.overall_avg_mshr_miss_latency::cpu1.inst 40660.142349                       # average overall mshr miss latency
system.l2.overall_avg_mshr_miss_latency::cpu1.data 40514.319809                       # average overall mshr miss latency
system.l2.overall_avg_mshr_miss_latency::total 40628.586333                       # average overall mshr miss latency
system.l2.no_allocate_misses                        0                       # Number of misses that were no-allocate
system.membus.trans_dist::ReadReq                 875                       # Transaction distribution
system.membus.trans_dist::ReadResp                875                       # Transaction distribution
system.membus.trans_dist::UpgradeReq              135                       # Transaction distribution
system.membus.trans_dist::SCUpgradeReq              5                       # Transaction distribution
system.membus.trans_dist::ReadExReq              2960                       # Transaction distribution
system.membus.trans_dist::ReadExResp             2959                       # Transaction distribution
system.membus.pkt_count_system.l2.mem_side::system.physmem.port         7809                       # Packet count per connected master and slave (bytes)
system.membus.pkt_count::total                   7809                       # Packet count per connected master and slave (bytes)
system.membus.pkt_size_system.l2.mem_side::system.physmem.port       245376                       # Cumulative packet size per connected master and slave (bytes)
system.membus.pkt_size::total                  245376                       # Cumulative packet size per connected master and slave (bytes)
system.membus.snoops                              141                       # Total snoops (count)
system.membus.snoop_fanout::samples              4101                       # Request fanout histogram
system.membus.snoop_fanout::mean                    0                       # Request fanout histogram
system.membus.snoop_fanout::stdev                   0                       # Request fanout histogram
system.membus.snoop_fanout::underflows              0      0.00%      0.00% # Request fanout histogram
system.membus.snoop_fanout::0                    4101    100.00%    100.00% # Request fanout histogram
system.membus.snoop_fanout::1                       0      0.00%    100.00% # Request fanout histogram
system.membus.snoop_fanout::overflows               0      0.00%    100.00% # Request fanout histogram
system.membus.snoop_fanout::min_value               0                       # Request fanout histogram
system.membus.snoop_fanout::max_value               0                       # Request fanout histogram
system.membus.snoop_fanout::total                4101                       # Request fanout histogram
system.membus.reqLayer0.occupancy             5918344                       # Layer occupancy (ticks)
system.membus.reqLayer0.utilization               0.0                       # Layer utilization (%)
system.membus.respLayer1.occupancy           21013000                       # Layer occupancy (ticks)
system.membus.respLayer1.utilization              0.0                       # Layer utilization (%)
system.tol2bus.trans_dist::ReadReq             417154                       # Transaction distribution
system.tol2bus.trans_dist::ReadResp            417154                       # Transaction distribution
system.tol2bus.trans_dist::Writeback           417710                       # Transaction distribution
system.tol2bus.trans_dist::UpgradeReq             137                       # Transaction distribution
system.tol2bus.trans_dist::SCUpgradeReq             5                       # Transaction distribution
system.tol2bus.trans_dist::UpgradeResp            142                       # Transaction distribution
system.tol2bus.trans_dist::ReadExReq             2969                       # Transaction distribution
system.tol2bus.trans_dist::ReadExResp            2969                       # Transaction distribution
system.tol2bus.pkt_count_system.cpu0.icache.mem_side::system.l2.cpu_side          760                       # Packet count per connected master and slave (bytes)
system.tol2bus.pkt_count_system.cpu0.dcache.mem_side::system.l2.cpu_side          629                       # Packet count per connected master and slave (bytes)
system.tol2bus.pkt_count_system.cpu1.icache.mem_side::system.l2.cpu_side         1010                       # Packet count per connected master and slave (bytes)
system.tol2bus.pkt_count_system.cpu1.dcache.mem_side::system.l2.cpu_side      1255513                       # Packet count per connected master and slave (bytes)
system.tol2bus.pkt_count::total               1257912                       # Packet count per connected master and slave (bytes)
system.tol2bus.pkt_size_system.cpu0.icache.mem_side::system.l2.cpu_side        24320                       # Cumulative packet size per connected master and slave (bytes)
system.tol2bus.pkt_size_system.cpu0.dcache.mem_side::system.l2.cpu_side        20160                       # Cumulative packet size per connected master and slave (bytes)
system.tol2bus.pkt_size_system.cpu1.icache.mem_side::system.l2.cpu_side        32320                       # Cumulative packet size per connected master and slave (bytes)
system.tol2bus.pkt_size_system.cpu1.dcache.mem_side::system.l2.cpu_side     53532480                       # Cumulative packet size per connected master and slave (bytes)
system.tol2bus.pkt_size::total               53609280                       # Cumulative packet size per connected master and slave (bytes)
system.tol2bus.snoops                             328                       # Total snoops (count)
system.tol2bus.snoop_fanout::samples           837975                       # Request fanout histogram
system.tol2bus.snoop_fanout::mean                   3                       # Request fanout histogram
system.tol2bus.snoop_fanout::stdev                  0                       # Request fanout histogram
system.tol2bus.snoop_fanout::underflows             0      0.00%      0.00% # Request fanout histogram
system.tol2bus.snoop_fanout::0                      0      0.00%      0.00% # Request fanout histogram
system.tol2bus.snoop_fanout::1                      0      0.00%      0.00% # Request fanout histogram
system.tol2bus.snoop_fanout::2                      0      0.00%      0.00% # Request fanout histogram
system.tol2bus.snoop_fanout::3                 837975    100.00%    100.00% # Request fanout histogram
system.tol2bus.snoop_fanout::4                      0      0.00%    100.00% # Request fanout histogram
system.tol2bus.snoop_fanout::overflows              0      0.00%    100.00% # Request fanout histogram
system.tol2bus.snoop_fanout::min_value              3                       # Request fanout histogram
system.tol2bus.snoop_fanout::max_value              3                       # Request fanout histogram
system.tol2bus.snoop_fanout::total             837975                       # Request fanout histogram
system.tol2bus.reqLayer0.occupancy          836697500                       # Layer occupancy (ticks)
system.tol2bus.reqLayer0.utilization              1.0                       # Layer utilization (%)
system.tol2bus.respLayer0.occupancy            570998                       # Layer occupancy (ticks)
system.tol2bus.respLayer0.utilization             0.0                       # Layer utilization (%)
system.tol2bus.respLayer1.occupancy            468494                       # Layer occupancy (ticks)
system.tol2bus.respLayer1.utilization             0.0                       # Layer utilization (%)
system.tol2bus.respLayer4.occupancy            757500                       # Layer occupancy (ticks)
system.tol2bus.respLayer4.utilization             0.0                       # Layer utilization (%)
system.tol2bus.respLayer5.occupancy         628462500                       # Layer occupancy (ticks)
system.tol2bus.respLayer5.utilization             0.8                       # Layer utilization (%)

---------- End Simulation Statistics   ----------
