
---------- Begin Simulation Statistics ----------
sim_seconds                                  0.068972                       # Number of seconds simulated
sim_ticks                                 68972168000                       # Number of ticks simulated
final_tick                                68972168000                       # Number of ticks from beginning of simulation (restored from checkpoints and never reset)
sim_freq                                 1000000000000                       # Frequency of simulated ticks
host_inst_rate                                 125185                       # Simulator instruction rate (inst/s)
host_op_rate                                   127043                       # Simulator op (including micro ops) rate (op/s)
host_tick_rate                               12800628                       # Simulator tick rate (ticks/s)
host_mem_usage                                 886124                       # Number of bytes of host memory used
host_seconds                                  5388.19                       # Real time elapsed on the host
sim_insts                                   674521090                       # Number of instructions simulated
sim_ops                                     684528871                       # Number of ops (including micro ops) simulated
system.voltage_domain.voltage                       1                       # Voltage in Volts
system.clk_domain.clock                          1000                       # Clock period in ticks
system.physmem.bytes_read::cpu00.inst           22464                       # Number of bytes read from this memory
system.physmem.bytes_read::cpu00.data           19776                       # Number of bytes read from this memory
system.physmem.bytes_read::cpu01.inst            3136                       # Number of bytes read from this memory
system.physmem.bytes_read::cpu01.data          334592                       # Number of bytes read from this memory
system.physmem.bytes_read::cpu02.inst            2048                       # Number of bytes read from this memory
system.physmem.bytes_read::cpu02.data          295744                       # Number of bytes read from this memory
system.physmem.bytes_read::cpu03.inst            2816                       # Number of bytes read from this memory
system.physmem.bytes_read::cpu03.data          358656                       # Number of bytes read from this memory
system.physmem.bytes_read::cpu04.inst            3392                       # Number of bytes read from this memory
system.physmem.bytes_read::cpu04.data          349056                       # Number of bytes read from this memory
system.physmem.bytes_read::cpu05.inst            1536                       # Number of bytes read from this memory
system.physmem.bytes_read::cpu05.data          242816                       # Number of bytes read from this memory
system.physmem.bytes_read::cpu06.inst            3776                       # Number of bytes read from this memory
system.physmem.bytes_read::cpu06.data          243200                       # Number of bytes read from this memory
system.physmem.bytes_read::cpu07.inst             896                       # Number of bytes read from this memory
system.physmem.bytes_read::cpu07.data          254976                       # Number of bytes read from this memory
system.physmem.bytes_read::cpu08.inst            2560                       # Number of bytes read from this memory
system.physmem.bytes_read::cpu08.data          216256                       # Number of bytes read from this memory
system.physmem.bytes_read::cpu09.inst            1216                       # Number of bytes read from this memory
system.physmem.bytes_read::cpu09.data          272320                       # Number of bytes read from this memory
system.physmem.bytes_read::cpu10.inst            3328                       # Number of bytes read from this memory
system.physmem.bytes_read::cpu10.data          243584                       # Number of bytes read from this memory
system.physmem.bytes_read::cpu11.inst             640                       # Number of bytes read from this memory
system.physmem.bytes_read::cpu11.data          273856                       # Number of bytes read from this memory
system.physmem.bytes_read::cpu12.inst             640                       # Number of bytes read from this memory
system.physmem.bytes_read::cpu12.data          302272                       # Number of bytes read from this memory
system.physmem.bytes_read::cpu13.inst             576                       # Number of bytes read from this memory
system.physmem.bytes_read::cpu13.data          218240                       # Number of bytes read from this memory
system.physmem.bytes_read::cpu14.inst             384                       # Number of bytes read from this memory
system.physmem.bytes_read::cpu14.data          287488                       # Number of bytes read from this memory
system.physmem.bytes_read::cpu15.inst             384                       # Number of bytes read from this memory
system.physmem.bytes_read::cpu15.data          227968                       # Number of bytes read from this memory
system.physmem.bytes_read::cpu16.inst            1792                       # Number of bytes read from this memory
system.physmem.bytes_read::cpu16.data          219264                       # Number of bytes read from this memory
system.physmem.bytes_read::total              4411648                       # Number of bytes read from this memory
system.physmem.bytes_inst_read::cpu00.inst        22464                       # Number of instructions bytes read from this memory
system.physmem.bytes_inst_read::cpu01.inst         3136                       # Number of instructions bytes read from this memory
system.physmem.bytes_inst_read::cpu02.inst         2048                       # Number of instructions bytes read from this memory
system.physmem.bytes_inst_read::cpu03.inst         2816                       # Number of instructions bytes read from this memory
system.physmem.bytes_inst_read::cpu04.inst         3392                       # Number of instructions bytes read from this memory
system.physmem.bytes_inst_read::cpu05.inst         1536                       # Number of instructions bytes read from this memory
system.physmem.bytes_inst_read::cpu06.inst         3776                       # Number of instructions bytes read from this memory
system.physmem.bytes_inst_read::cpu07.inst          896                       # Number of instructions bytes read from this memory
system.physmem.bytes_inst_read::cpu08.inst         2560                       # Number of instructions bytes read from this memory
system.physmem.bytes_inst_read::cpu09.inst         1216                       # Number of instructions bytes read from this memory
system.physmem.bytes_inst_read::cpu10.inst         3328                       # Number of instructions bytes read from this memory
system.physmem.bytes_inst_read::cpu11.inst          640                       # Number of instructions bytes read from this memory
system.physmem.bytes_inst_read::cpu12.inst          640                       # Number of instructions bytes read from this memory
system.physmem.bytes_inst_read::cpu13.inst          576                       # Number of instructions bytes read from this memory
system.physmem.bytes_inst_read::cpu14.inst          384                       # Number of instructions bytes read from this memory
system.physmem.bytes_inst_read::cpu15.inst          384                       # Number of instructions bytes read from this memory
system.physmem.bytes_inst_read::cpu16.inst         1792                       # Number of instructions bytes read from this memory
system.physmem.bytes_inst_read::total           51584                       # Number of instructions bytes read from this memory
system.physmem.bytes_written::writebacks        52032                       # Number of bytes written to this memory
system.physmem.bytes_written::total             52032                       # Number of bytes written to this memory
system.physmem.num_reads::cpu00.inst              351                       # Number of read requests responded to by this memory
system.physmem.num_reads::cpu00.data              309                       # Number of read requests responded to by this memory
system.physmem.num_reads::cpu01.inst               49                       # Number of read requests responded to by this memory
system.physmem.num_reads::cpu01.data             5228                       # Number of read requests responded to by this memory
system.physmem.num_reads::cpu02.inst               32                       # Number of read requests responded to by this memory
system.physmem.num_reads::cpu02.data             4621                       # Number of read requests responded to by this memory
system.physmem.num_reads::cpu03.inst               44                       # Number of read requests responded to by this memory
system.physmem.num_reads::cpu03.data             5604                       # Number of read requests responded to by this memory
system.physmem.num_reads::cpu04.inst               53                       # Number of read requests responded to by this memory
system.physmem.num_reads::cpu04.data             5454                       # Number of read requests responded to by this memory
system.physmem.num_reads::cpu05.inst               24                       # Number of read requests responded to by this memory
system.physmem.num_reads::cpu05.data             3794                       # Number of read requests responded to by this memory
system.physmem.num_reads::cpu06.inst               59                       # Number of read requests responded to by this memory
system.physmem.num_reads::cpu06.data             3800                       # Number of read requests responded to by this memory
system.physmem.num_reads::cpu07.inst               14                       # Number of read requests responded to by this memory
system.physmem.num_reads::cpu07.data             3984                       # Number of read requests responded to by this memory
system.physmem.num_reads::cpu08.inst               40                       # Number of read requests responded to by this memory
system.physmem.num_reads::cpu08.data             3379                       # Number of read requests responded to by this memory
system.physmem.num_reads::cpu09.inst               19                       # Number of read requests responded to by this memory
system.physmem.num_reads::cpu09.data             4255                       # Number of read requests responded to by this memory
system.physmem.num_reads::cpu10.inst               52                       # Number of read requests responded to by this memory
system.physmem.num_reads::cpu10.data             3806                       # Number of read requests responded to by this memory
system.physmem.num_reads::cpu11.inst               10                       # Number of read requests responded to by this memory
system.physmem.num_reads::cpu11.data             4279                       # Number of read requests responded to by this memory
system.physmem.num_reads::cpu12.inst               10                       # Number of read requests responded to by this memory
system.physmem.num_reads::cpu12.data             4723                       # Number of read requests responded to by this memory
system.physmem.num_reads::cpu13.inst                9                       # Number of read requests responded to by this memory
system.physmem.num_reads::cpu13.data             3410                       # Number of read requests responded to by this memory
system.physmem.num_reads::cpu14.inst                6                       # Number of read requests responded to by this memory
system.physmem.num_reads::cpu14.data             4492                       # Number of read requests responded to by this memory
system.physmem.num_reads::cpu15.inst                6                       # Number of read requests responded to by this memory
system.physmem.num_reads::cpu15.data             3562                       # Number of read requests responded to by this memory
system.physmem.num_reads::cpu16.inst               28                       # Number of read requests responded to by this memory
system.physmem.num_reads::cpu16.data             3426                       # Number of read requests responded to by this memory
system.physmem.num_reads::total                 68932                       # Number of read requests responded to by this memory
system.physmem.num_writes::writebacks             813                       # Number of write requests responded to by this memory
system.physmem.num_writes::total                  813                       # Number of write requests responded to by this memory
system.physmem.bw_read::cpu00.inst             325697                       # Total read bandwidth from this memory (bytes/s)
system.physmem.bw_read::cpu00.data             286724                       # Total read bandwidth from this memory (bytes/s)
system.physmem.bw_read::cpu01.inst              45468                       # Total read bandwidth from this memory (bytes/s)
system.physmem.bw_read::cpu01.data            4851116                       # Total read bandwidth from this memory (bytes/s)
system.physmem.bw_read::cpu02.inst              29693                       # Total read bandwidth from this memory (bytes/s)
system.physmem.bw_read::cpu02.data            4287874                       # Total read bandwidth from this memory (bytes/s)
system.physmem.bw_read::cpu03.inst              40828                       # Total read bandwidth from this memory (bytes/s)
system.physmem.bw_read::cpu03.data            5200011                       # Total read bandwidth from this memory (bytes/s)
system.physmem.bw_read::cpu04.inst              49179                       # Total read bandwidth from this memory (bytes/s)
system.physmem.bw_read::cpu04.data            5060824                       # Total read bandwidth from this memory (bytes/s)
system.physmem.bw_read::cpu05.inst              22270                       # Total read bandwidth from this memory (bytes/s)
system.physmem.bw_read::cpu05.data            3520492                       # Total read bandwidth from this memory (bytes/s)
system.physmem.bw_read::cpu06.inst              54747                       # Total read bandwidth from this memory (bytes/s)
system.physmem.bw_read::cpu06.data            3526060                       # Total read bandwidth from this memory (bytes/s)
system.physmem.bw_read::cpu07.inst              12991                       # Total read bandwidth from this memory (bytes/s)
system.physmem.bw_read::cpu07.data            3696795                       # Total read bandwidth from this memory (bytes/s)
system.physmem.bw_read::cpu08.inst              37116                       # Total read bandwidth from this memory (bytes/s)
system.physmem.bw_read::cpu08.data            3135410                       # Total read bandwidth from this memory (bytes/s)
system.physmem.bw_read::cpu09.inst              17630                       # Total read bandwidth from this memory (bytes/s)
system.physmem.bw_read::cpu09.data            3948259                       # Total read bandwidth from this memory (bytes/s)
system.physmem.bw_read::cpu10.inst              48251                       # Total read bandwidth from this memory (bytes/s)
system.physmem.bw_read::cpu10.data            3531627                       # Total read bandwidth from this memory (bytes/s)
system.physmem.bw_read::cpu11.inst               9279                       # Total read bandwidth from this memory (bytes/s)
system.physmem.bw_read::cpu11.data            3970529                       # Total read bandwidth from this memory (bytes/s)
system.physmem.bw_read::cpu12.inst               9279                       # Total read bandwidth from this memory (bytes/s)
system.physmem.bw_read::cpu12.data            4382521                       # Total read bandwidth from this memory (bytes/s)
system.physmem.bw_read::cpu13.inst               8351                       # Total read bandwidth from this memory (bytes/s)
system.physmem.bw_read::cpu13.data            3164175                       # Total read bandwidth from this memory (bytes/s)
system.physmem.bw_read::cpu14.inst               5567                       # Total read bandwidth from this memory (bytes/s)
system.physmem.bw_read::cpu14.data            4168174                       # Total read bandwidth from this memory (bytes/s)
system.physmem.bw_read::cpu15.inst               5567                       # Total read bandwidth from this memory (bytes/s)
system.physmem.bw_read::cpu15.data            3305217                       # Total read bandwidth from this memory (bytes/s)
system.physmem.bw_read::cpu16.inst              25981                       # Total read bandwidth from this memory (bytes/s)
system.physmem.bw_read::cpu16.data            3179021                       # Total read bandwidth from this memory (bytes/s)
system.physmem.bw_read::total                63962728                       # Total read bandwidth from this memory (bytes/s)
system.physmem.bw_inst_read::cpu00.inst        325697                       # Instruction read bandwidth from this memory (bytes/s)
system.physmem.bw_inst_read::cpu01.inst         45468                       # Instruction read bandwidth from this memory (bytes/s)
system.physmem.bw_inst_read::cpu02.inst         29693                       # Instruction read bandwidth from this memory (bytes/s)
system.physmem.bw_inst_read::cpu03.inst         40828                       # Instruction read bandwidth from this memory (bytes/s)
system.physmem.bw_inst_read::cpu04.inst         49179                       # Instruction read bandwidth from this memory (bytes/s)
system.physmem.bw_inst_read::cpu05.inst         22270                       # Instruction read bandwidth from this memory (bytes/s)
system.physmem.bw_inst_read::cpu06.inst         54747                       # Instruction read bandwidth from this memory (bytes/s)
system.physmem.bw_inst_read::cpu07.inst         12991                       # Instruction read bandwidth from this memory (bytes/s)
system.physmem.bw_inst_read::cpu08.inst         37116                       # Instruction read bandwidth from this memory (bytes/s)
system.physmem.bw_inst_read::cpu09.inst         17630                       # Instruction read bandwidth from this memory (bytes/s)
system.physmem.bw_inst_read::cpu10.inst         48251                       # Instruction read bandwidth from this memory (bytes/s)
system.physmem.bw_inst_read::cpu11.inst          9279                       # Instruction read bandwidth from this memory (bytes/s)
system.physmem.bw_inst_read::cpu12.inst          9279                       # Instruction read bandwidth from this memory (bytes/s)
system.physmem.bw_inst_read::cpu13.inst          8351                       # Instruction read bandwidth from this memory (bytes/s)
system.physmem.bw_inst_read::cpu14.inst          5567                       # Instruction read bandwidth from this memory (bytes/s)
system.physmem.bw_inst_read::cpu15.inst          5567                       # Instruction read bandwidth from this memory (bytes/s)
system.physmem.bw_inst_read::cpu16.inst         25981                       # Instruction read bandwidth from this memory (bytes/s)
system.physmem.bw_inst_read::total             747896                       # Instruction read bandwidth from this memory (bytes/s)
system.physmem.bw_write::writebacks            754391                       # Write bandwidth from this memory (bytes/s)
system.physmem.bw_write::total                 754391                       # Write bandwidth from this memory (bytes/s)
system.physmem.bw_total::writebacks            754391                       # Total bandwidth to/from this memory (bytes/s)
system.physmem.bw_total::cpu00.inst            325697                       # Total bandwidth to/from this memory (bytes/s)
system.physmem.bw_total::cpu00.data            286724                       # Total bandwidth to/from this memory (bytes/s)
system.physmem.bw_total::cpu01.inst             45468                       # Total bandwidth to/from this memory (bytes/s)
system.physmem.bw_total::cpu01.data           4851116                       # Total bandwidth to/from this memory (bytes/s)
system.physmem.bw_total::cpu02.inst             29693                       # Total bandwidth to/from this memory (bytes/s)
system.physmem.bw_total::cpu02.data           4287874                       # Total bandwidth to/from this memory (bytes/s)
system.physmem.bw_total::cpu03.inst             40828                       # Total bandwidth to/from this memory (bytes/s)
system.physmem.bw_total::cpu03.data           5200011                       # Total bandwidth to/from this memory (bytes/s)
system.physmem.bw_total::cpu04.inst             49179                       # Total bandwidth to/from this memory (bytes/s)
system.physmem.bw_total::cpu04.data           5060824                       # Total bandwidth to/from this memory (bytes/s)
system.physmem.bw_total::cpu05.inst             22270                       # Total bandwidth to/from this memory (bytes/s)
system.physmem.bw_total::cpu05.data           3520492                       # Total bandwidth to/from this memory (bytes/s)
system.physmem.bw_total::cpu06.inst             54747                       # Total bandwidth to/from this memory (bytes/s)
system.physmem.bw_total::cpu06.data           3526060                       # Total bandwidth to/from this memory (bytes/s)
system.physmem.bw_total::cpu07.inst             12991                       # Total bandwidth to/from this memory (bytes/s)
system.physmem.bw_total::cpu07.data           3696795                       # Total bandwidth to/from this memory (bytes/s)
system.physmem.bw_total::cpu08.inst             37116                       # Total bandwidth to/from this memory (bytes/s)
system.physmem.bw_total::cpu08.data           3135410                       # Total bandwidth to/from this memory (bytes/s)
system.physmem.bw_total::cpu09.inst             17630                       # Total bandwidth to/from this memory (bytes/s)
system.physmem.bw_total::cpu09.data           3948259                       # Total bandwidth to/from this memory (bytes/s)
system.physmem.bw_total::cpu10.inst             48251                       # Total bandwidth to/from this memory (bytes/s)
system.physmem.bw_total::cpu10.data           3531627                       # Total bandwidth to/from this memory (bytes/s)
system.physmem.bw_total::cpu11.inst              9279                       # Total bandwidth to/from this memory (bytes/s)
system.physmem.bw_total::cpu11.data           3970529                       # Total bandwidth to/from this memory (bytes/s)
system.physmem.bw_total::cpu12.inst              9279                       # Total bandwidth to/from this memory (bytes/s)
system.physmem.bw_total::cpu12.data           4382521                       # Total bandwidth to/from this memory (bytes/s)
system.physmem.bw_total::cpu13.inst              8351                       # Total bandwidth to/from this memory (bytes/s)
system.physmem.bw_total::cpu13.data           3164175                       # Total bandwidth to/from this memory (bytes/s)
system.physmem.bw_total::cpu14.inst              5567                       # Total bandwidth to/from this memory (bytes/s)
system.physmem.bw_total::cpu14.data           4168174                       # Total bandwidth to/from this memory (bytes/s)
system.physmem.bw_total::cpu15.inst              5567                       # Total bandwidth to/from this memory (bytes/s)
system.physmem.bw_total::cpu15.data           3305217                       # Total bandwidth to/from this memory (bytes/s)
system.physmem.bw_total::cpu16.inst             25981                       # Total bandwidth to/from this memory (bytes/s)
system.physmem.bw_total::cpu16.data           3179021                       # Total bandwidth to/from this memory (bytes/s)
system.physmem.bw_total::total               64717119                       # Total bandwidth to/from this memory (bytes/s)
system.cpu00.branchPred.lookups              34473650                       # Number of BP lookups
system.cpu00.branchPred.condPredicted        34472169                       # Number of conditional branches predicted
system.cpu00.branchPred.condIncorrect             827                       # Number of conditional branches incorrect
system.cpu00.branchPred.BTBLookups           34470935                       # Number of BTB lookups
system.cpu00.branchPred.BTBHits              34470453                       # Number of BTB hits
system.cpu00.branchPred.BTBCorrect                  0                       # Number of correct BTB predictions (this stat may not work properly.
system.cpu00.branchPred.BTBHitPct           99.998602                       # BTB Hit Percentage
system.cpu00.branchPred.usedRAS                   552                       # Number of times the RAS was used to get a target.
system.cpu00.branchPred.RASInCorrect               55                       # Number of incorrect RAS predictions.
system.cpu00.dstage2_mmu.stage2_tlb.walker.walks            0                       # Table walker walks requested
system.cpu00.dstage2_mmu.stage2_tlb.walker.walkRequestOrigin_Requested::Data            0                       # Table walker requests started/completed, data/inst
system.cpu00.dstage2_mmu.stage2_tlb.walker.walkRequestOrigin_Requested::Inst            0                       # Table walker requests started/completed, data/inst
system.cpu00.dstage2_mmu.stage2_tlb.walker.walkRequestOrigin_Requested::total            0                       # Table walker requests started/completed, data/inst
system.cpu00.dstage2_mmu.stage2_tlb.walker.walkRequestOrigin_Completed::Data            0                       # Table walker requests started/completed, data/inst
system.cpu00.dstage2_mmu.stage2_tlb.walker.walkRequestOrigin_Completed::Inst            0                       # Table walker requests started/completed, data/inst
system.cpu00.dstage2_mmu.stage2_tlb.walker.walkRequestOrigin_Completed::total            0                       # Table walker requests started/completed, data/inst
system.cpu00.dstage2_mmu.stage2_tlb.walker.walkRequestOrigin::total            0                       # Table walker requests started/completed, data/inst
system.cpu00.dstage2_mmu.stage2_tlb.inst_hits            0                       # ITB inst hits
system.cpu00.dstage2_mmu.stage2_tlb.inst_misses            0                       # ITB inst misses
system.cpu00.dstage2_mmu.stage2_tlb.read_hits            0                       # DTB read hits
system.cpu00.dstage2_mmu.stage2_tlb.read_misses            0                       # DTB read misses
system.cpu00.dstage2_mmu.stage2_tlb.write_hits            0                       # DTB write hits
system.cpu00.dstage2_mmu.stage2_tlb.write_misses            0                       # DTB write misses
system.cpu00.dstage2_mmu.stage2_tlb.flush_tlb            0                       # Number of times complete TLB was flushed
system.cpu00.dstage2_mmu.stage2_tlb.flush_tlb_mva            0                       # Number of times TLB was flushed by MVA
system.cpu00.dstage2_mmu.stage2_tlb.flush_tlb_mva_asid            0                       # Number of times TLB was flushed by MVA & ASID
system.cpu00.dstage2_mmu.stage2_tlb.flush_tlb_asid            0                       # Number of times TLB was flushed by ASID
system.cpu00.dstage2_mmu.stage2_tlb.flush_entries            0                       # Number of entries that have been flushed from TLB
system.cpu00.dstage2_mmu.stage2_tlb.align_faults            0                       # Number of TLB faults due to alignment restrictions
system.cpu00.dstage2_mmu.stage2_tlb.prefetch_faults            0                       # Number of TLB faults due to prefetch
system.cpu00.dstage2_mmu.stage2_tlb.domain_faults            0                       # Number of TLB faults due to domain restrictions
system.cpu00.dstage2_mmu.stage2_tlb.perms_faults            0                       # Number of TLB faults due to permissions restrictions
system.cpu00.dstage2_mmu.stage2_tlb.read_accesses            0                       # DTB read accesses
system.cpu00.dstage2_mmu.stage2_tlb.write_accesses            0                       # DTB write accesses
system.cpu00.dstage2_mmu.stage2_tlb.inst_accesses            0                       # ITB inst accesses
system.cpu00.dstage2_mmu.stage2_tlb.hits            0                       # DTB hits
system.cpu00.dstage2_mmu.stage2_tlb.misses            0                       # DTB misses
system.cpu00.dstage2_mmu.stage2_tlb.accesses            0                       # DTB accesses
system.cpu00.dtb.walker.walks                       0                       # Table walker walks requested
system.cpu00.dtb.walker.walkRequestOrigin_Requested::Data            0                       # Table walker requests started/completed, data/inst
system.cpu00.dtb.walker.walkRequestOrigin_Requested::Inst            0                       # Table walker requests started/completed, data/inst
system.cpu00.dtb.walker.walkRequestOrigin_Requested::total            0                       # Table walker requests started/completed, data/inst
system.cpu00.dtb.walker.walkRequestOrigin_Completed::Data            0                       # Table walker requests started/completed, data/inst
system.cpu00.dtb.walker.walkRequestOrigin_Completed::Inst            0                       # Table walker requests started/completed, data/inst
system.cpu00.dtb.walker.walkRequestOrigin_Completed::total            0                       # Table walker requests started/completed, data/inst
system.cpu00.dtb.walker.walkRequestOrigin::total            0                       # Table walker requests started/completed, data/inst
system.cpu00.dtb.inst_hits                          0                       # ITB inst hits
system.cpu00.dtb.inst_misses                        0                       # ITB inst misses
system.cpu00.dtb.read_hits                          0                       # DTB read hits
system.cpu00.dtb.read_misses                        0                       # DTB read misses
system.cpu00.dtb.write_hits                         0                       # DTB write hits
system.cpu00.dtb.write_misses                       0                       # DTB write misses
system.cpu00.dtb.flush_tlb                          0                       # Number of times complete TLB was flushed
system.cpu00.dtb.flush_tlb_mva                      0                       # Number of times TLB was flushed by MVA
system.cpu00.dtb.flush_tlb_mva_asid                 0                       # Number of times TLB was flushed by MVA & ASID
system.cpu00.dtb.flush_tlb_asid                     0                       # Number of times TLB was flushed by ASID
system.cpu00.dtb.flush_entries                      0                       # Number of entries that have been flushed from TLB
system.cpu00.dtb.align_faults                       0                       # Number of TLB faults due to alignment restrictions
system.cpu00.dtb.prefetch_faults                    0                       # Number of TLB faults due to prefetch
system.cpu00.dtb.domain_faults                      0                       # Number of TLB faults due to domain restrictions
system.cpu00.dtb.perms_faults                       0                       # Number of TLB faults due to permissions restrictions
system.cpu00.dtb.read_accesses                      0                       # DTB read accesses
system.cpu00.dtb.write_accesses                     0                       # DTB write accesses
system.cpu00.dtb.inst_accesses                      0                       # ITB inst accesses
system.cpu00.dtb.hits                               0                       # DTB hits
system.cpu00.dtb.misses                             0                       # DTB misses
system.cpu00.dtb.accesses                           0                       # DTB accesses
system.cpu00.istage2_mmu.stage2_tlb.walker.walks            0                       # Table walker walks requested
system.cpu00.istage2_mmu.stage2_tlb.walker.walkRequestOrigin_Requested::Data            0                       # Table walker requests started/completed, data/inst
system.cpu00.istage2_mmu.stage2_tlb.walker.walkRequestOrigin_Requested::Inst            0                       # Table walker requests started/completed, data/inst
system.cpu00.istage2_mmu.stage2_tlb.walker.walkRequestOrigin_Requested::total            0                       # Table walker requests started/completed, data/inst
system.cpu00.istage2_mmu.stage2_tlb.walker.walkRequestOrigin_Completed::Data            0                       # Table walker requests started/completed, data/inst
system.cpu00.istage2_mmu.stage2_tlb.walker.walkRequestOrigin_Completed::Inst            0                       # Table walker requests started/completed, data/inst
system.cpu00.istage2_mmu.stage2_tlb.walker.walkRequestOrigin_Completed::total            0                       # Table walker requests started/completed, data/inst
system.cpu00.istage2_mmu.stage2_tlb.walker.walkRequestOrigin::total            0                       # Table walker requests started/completed, data/inst
system.cpu00.istage2_mmu.stage2_tlb.inst_hits            0                       # ITB inst hits
system.cpu00.istage2_mmu.stage2_tlb.inst_misses            0                       # ITB inst misses
system.cpu00.istage2_mmu.stage2_tlb.read_hits            0                       # DTB read hits
system.cpu00.istage2_mmu.stage2_tlb.read_misses            0                       # DTB read misses
system.cpu00.istage2_mmu.stage2_tlb.write_hits            0                       # DTB write hits
system.cpu00.istage2_mmu.stage2_tlb.write_misses            0                       # DTB write misses
system.cpu00.istage2_mmu.stage2_tlb.flush_tlb            0                       # Number of times complete TLB was flushed
system.cpu00.istage2_mmu.stage2_tlb.flush_tlb_mva            0                       # Number of times TLB was flushed by MVA
system.cpu00.istage2_mmu.stage2_tlb.flush_tlb_mva_asid            0                       # Number of times TLB was flushed by MVA & ASID
system.cpu00.istage2_mmu.stage2_tlb.flush_tlb_asid            0                       # Number of times TLB was flushed by ASID
system.cpu00.istage2_mmu.stage2_tlb.flush_entries            0                       # Number of entries that have been flushed from TLB
system.cpu00.istage2_mmu.stage2_tlb.align_faults            0                       # Number of TLB faults due to alignment restrictions
system.cpu00.istage2_mmu.stage2_tlb.prefetch_faults            0                       # Number of TLB faults due to prefetch
system.cpu00.istage2_mmu.stage2_tlb.domain_faults            0                       # Number of TLB faults due to domain restrictions
system.cpu00.istage2_mmu.stage2_tlb.perms_faults            0                       # Number of TLB faults due to permissions restrictions
system.cpu00.istage2_mmu.stage2_tlb.read_accesses            0                       # DTB read accesses
system.cpu00.istage2_mmu.stage2_tlb.write_accesses            0                       # DTB write accesses
system.cpu00.istage2_mmu.stage2_tlb.inst_accesses            0                       # ITB inst accesses
system.cpu00.istage2_mmu.stage2_tlb.hits            0                       # DTB hits
system.cpu00.istage2_mmu.stage2_tlb.misses            0                       # DTB misses
system.cpu00.istage2_mmu.stage2_tlb.accesses            0                       # DTB accesses
system.cpu00.itb.walker.walks                       0                       # Table walker walks requested
system.cpu00.itb.walker.walkRequestOrigin_Requested::Data            0                       # Table walker requests started/completed, data/inst
system.cpu00.itb.walker.walkRequestOrigin_Requested::Inst            0                       # Table walker requests started/completed, data/inst
system.cpu00.itb.walker.walkRequestOrigin_Requested::total            0                       # Table walker requests started/completed, data/inst
system.cpu00.itb.walker.walkRequestOrigin_Completed::Data            0                       # Table walker requests started/completed, data/inst
system.cpu00.itb.walker.walkRequestOrigin_Completed::Inst            0                       # Table walker requests started/completed, data/inst
system.cpu00.itb.walker.walkRequestOrigin_Completed::total            0                       # Table walker requests started/completed, data/inst
system.cpu00.itb.walker.walkRequestOrigin::total            0                       # Table walker requests started/completed, data/inst
system.cpu00.itb.inst_hits                          0                       # ITB inst hits
system.cpu00.itb.inst_misses                        0                       # ITB inst misses
system.cpu00.itb.read_hits                          0                       # DTB read hits
system.cpu00.itb.read_misses                        0                       # DTB read misses
system.cpu00.itb.write_hits                         0                       # DTB write hits
system.cpu00.itb.write_misses                       0                       # DTB write misses
system.cpu00.itb.flush_tlb                          0                       # Number of times complete TLB was flushed
system.cpu00.itb.flush_tlb_mva                      0                       # Number of times TLB was flushed by MVA
system.cpu00.itb.flush_tlb_mva_asid                 0                       # Number of times TLB was flushed by MVA & ASID
system.cpu00.itb.flush_tlb_asid                     0                       # Number of times TLB was flushed by ASID
system.cpu00.itb.flush_entries                      0                       # Number of entries that have been flushed from TLB
system.cpu00.itb.align_faults                       0                       # Number of TLB faults due to alignment restrictions
system.cpu00.itb.prefetch_faults                    0                       # Number of TLB faults due to prefetch
system.cpu00.itb.domain_faults                      0                       # Number of TLB faults due to domain restrictions
system.cpu00.itb.perms_faults                       0                       # Number of TLB faults due to permissions restrictions
system.cpu00.itb.read_accesses                      0                       # DTB read accesses
system.cpu00.itb.write_accesses                     0                       # DTB write accesses
system.cpu00.itb.inst_accesses                      0                       # ITB inst accesses
system.cpu00.itb.hits                               0                       # DTB hits
system.cpu00.itb.misses                             0                       # DTB misses
system.cpu00.itb.accesses                           0                       # DTB accesses
system.cpu00.workload.num_syscalls             155692                       # Number of system calls
system.cpu00.numCycles                       68972169                       # number of cpu cycles simulated
system.cpu00.numWorkItemsStarted                    0                       # number of work items this cpu started
system.cpu00.numWorkItemsCompleted                  0                       # number of work items this cpu completed
system.cpu00.fetch.icacheStallCycles             9395                       # Number of cycles fetch is stalled on an Icache miss
system.cpu00.fetch.Insts                    172369631                       # Number of instructions fetch has processed
system.cpu00.fetch.Branches                  34473650                       # Number of branches that fetch encountered
system.cpu00.fetch.predictedBranches         34471005                       # Number of branches that fetch has predicted taken
system.cpu00.fetch.Cycles                    68953434                       # Number of cycles fetch has run and was not squashing or blocked
system.cpu00.fetch.SquashCycles                  2033                       # Number of cycles fetch has spent squashing
system.cpu00.fetch.PendingTrapStallCycles          156                       # Number of stall cycles due to pending traps
system.cpu00.fetch.CacheLines                    2904                       # Number of cache lines fetched
system.cpu00.fetch.IcacheSquashes                 286                       # Number of outstanding Icache misses that were squashed
system.cpu00.fetch.rateDist::samples         68964001                       # Number of instructions fetched each cycle (Total)
system.cpu00.fetch.rateDist::mean            2.499502                       # Number of instructions fetched each cycle (Total)
system.cpu00.fetch.rateDist::stdev           0.501302                       # Number of instructions fetched each cycle (Total)
system.cpu00.fetch.rateDist::underflows             0      0.00%      0.00% # Number of instructions fetched each cycle (Total)
system.cpu00.fetch.rateDist::0                  14689      0.02%      0.02% # Number of instructions fetched each cycle (Total)
system.cpu00.fetch.rateDist::1                    907      0.00%      0.02% # Number of instructions fetched each cycle (Total)
system.cpu00.fetch.rateDist::2               34470448     49.98%     50.01% # Number of instructions fetched each cycle (Total)
system.cpu00.fetch.rateDist::3               34477957     49.99%    100.00% # Number of instructions fetched each cycle (Total)
system.cpu00.fetch.rateDist::overflows              0      0.00%    100.00% # Number of instructions fetched each cycle (Total)
system.cpu00.fetch.rateDist::min_value              0                       # Number of instructions fetched each cycle (Total)
system.cpu00.fetch.rateDist::max_value              3                       # Number of instructions fetched each cycle (Total)
system.cpu00.fetch.rateDist::total           68964001                       # Number of instructions fetched each cycle (Total)
system.cpu00.fetch.branchRate                0.499820                       # Number of branch fetches per cycle
system.cpu00.fetch.rate                      2.499119                       # Number of inst fetches per cycle
system.cpu00.decode.IdleCycles                   9012                       # Number of cycles decode is idle
system.cpu00.decode.BlockedCycles                6737                       # Number of cycles decode is blocked
system.cpu00.decode.RunCycles                68946613                       # Number of cycles decode is running
system.cpu00.decode.UnblockCycles                 825                       # Number of cycles decode is unblocking
system.cpu00.decode.SquashCycles                  814                       # Number of cycles decode is squashing
system.cpu00.decode.BranchResolved                567                       # Number of times decode resolved a branch
system.cpu00.decode.BranchMispred                 216                       # Number of times decode detected a branch misprediction
system.cpu00.decode.DecodedInsts            172371331                       # Number of instructions handled by decode
system.cpu00.decode.SquashedInsts                 483                       # Number of squashed instructions handled by decode
system.cpu00.rename.SquashCycles                  814                       # Number of cycles rename is squashing
system.cpu00.rename.IdleCycles                   9886                       # Number of cycles rename is idle
system.cpu00.rename.BlockCycles                   746                       # Number of cycles rename is blocking
system.cpu00.rename.serializeStallCycles         3549                       # count of cycles rename stalled for serializing inst
system.cpu00.rename.RunCycles                68946476                       # Number of cycles rename is running
system.cpu00.rename.UnblockCycles                2530                       # Number of cycles rename is unblocking
system.cpu00.rename.RenamedInsts            172369742                       # Number of instructions processed by rename
system.cpu00.rename.IQFullEvents                    1                       # Number of times rename has blocked due to IQ full
system.cpu00.rename.SQFullEvents                 2413                       # Number of times rename has blocked due to SQ full
system.cpu00.rename.RenamedOperands         172371602                       # Number of destination operands rename has renamed
system.cpu00.rename.RenameLookups           792904957                       # Number of register rename lookups that rename has made
system.cpu00.rename.int_rename_lookups      172375693                       # Number of integer rename lookups
system.cpu00.rename.fp_rename_lookups              16                       # Number of floating rename lookups
system.cpu00.rename.CommittedMaps           172359938                       # Number of HB maps that are committed
system.cpu00.rename.UndoneMaps                  11664                       # Number of HB maps that are undone due to squashing
system.cpu00.rename.serializingInsts               76                       # count of serializing insts renamed
system.cpu00.rename.tempSerializingInsts           75                       # count of temporary serializing insts renamed
system.cpu00.rename.skidInsts                    1168                       # count of insts added to the skid buffer
system.cpu00.memDep0.insertedLoads           68941903                       # Number of loads inserted to the mem dependence unit.
system.cpu00.memDep0.insertedStores          34473673                       # Number of stores inserted to the mem dependence unit.
system.cpu00.memDep0.conflictingLoads        34468835                       # Number of conflicting loads.
system.cpu00.memDep0.conflictingStores       34468765                       # Number of conflicting stores.
system.cpu00.iq.iqInstsAdded                172366931                       # Number of instructions added to the IQ (excludes non-spec)
system.cpu00.iq.iqNonSpecInstsAdded                98                       # Number of non-speculative instructions added to the IQ
system.cpu00.iq.iqInstsIssued               172363919                       # Number of instructions issued
system.cpu00.iq.iqSquashedInstsIssued             605                       # Number of squashed instructions issued
system.cpu00.iq.iqSquashedInstsExamined          7901                       # Number of squashed instructions iterated over during squash; mainly for profiling
system.cpu00.iq.iqSquashedOperandsExamined        19043                       # Number of squashed operands that are examined and possibly removed from graph
system.cpu00.iq.iqSquashedNonSpecRemoved            5                       # Number of squashed non-spec instructions that were removed
system.cpu00.iq.issued_per_cycle::samples     68964001                       # Number of insts issued each cycle
system.cpu00.iq.issued_per_cycle::mean       2.499332                       # Number of insts issued each cycle
system.cpu00.iq.issued_per_cycle::stdev      0.706881                       # Number of insts issued each cycle
system.cpu00.iq.issued_per_cycle::underflows            0      0.00%      0.00% # Number of insts issued each cycle
system.cpu00.iq.issued_per_cycle::0             16720      0.02%      0.02% # Number of insts issued each cycle
system.cpu00.iq.issued_per_cycle::1           8559360     12.41%     12.44% # Number of insts issued each cycle
system.cpu00.iq.issued_per_cycle::2          17359204     25.17%     37.61% # Number of insts issued each cycle
system.cpu00.iq.issued_per_cycle::3          43028717     62.39%    100.00% # Number of insts issued each cycle
system.cpu00.iq.issued_per_cycle::overflows            0      0.00%    100.00% # Number of insts issued each cycle
system.cpu00.iq.issued_per_cycle::min_value            0                       # Number of insts issued each cycle
system.cpu00.iq.issued_per_cycle::max_value            3                       # Number of insts issued each cycle
system.cpu00.iq.issued_per_cycle::total      68964001                       # Number of insts issued each cycle
system.cpu00.iq.fu_full::No_OpClass                 0                       # attempts to use FU when none available
system.cpu00.iq.fu_full::IntAlu                     0                       # attempts to use FU when none available
system.cpu00.iq.fu_full::IntMult                    0                       # attempts to use FU when none available
system.cpu00.iq.fu_full::IntDiv                     0                       # attempts to use FU when none available
system.cpu00.iq.fu_full::FloatAdd                   0                       # attempts to use FU when none available
system.cpu00.iq.fu_full::FloatCmp                   0                       # attempts to use FU when none available
system.cpu00.iq.fu_full::FloatCvt                   0                       # attempts to use FU when none available
system.cpu00.iq.fu_full::FloatMult                  0                       # attempts to use FU when none available
system.cpu00.iq.fu_full::FloatDiv                   0                       # attempts to use FU when none available
system.cpu00.iq.fu_full::FloatSqrt                  0                       # attempts to use FU when none available
system.cpu00.iq.fu_full::SimdAdd                    0                       # attempts to use FU when none available
system.cpu00.iq.fu_full::SimdAddAcc                 0                       # attempts to use FU when none available
system.cpu00.iq.fu_full::SimdAlu                    0                       # attempts to use FU when none available
system.cpu00.iq.fu_full::SimdCmp                    0                       # attempts to use FU when none available
system.cpu00.iq.fu_full::SimdCvt                    0                       # attempts to use FU when none available
system.cpu00.iq.fu_full::SimdMisc                   0                       # attempts to use FU when none available
system.cpu00.iq.fu_full::SimdMult                   0                       # attempts to use FU when none available
system.cpu00.iq.fu_full::SimdMultAcc                0                       # attempts to use FU when none available
system.cpu00.iq.fu_full::SimdShift                  0                       # attempts to use FU when none available
system.cpu00.iq.fu_full::SimdShiftAcc               0                       # attempts to use FU when none available
system.cpu00.iq.fu_full::SimdSqrt                   0                       # attempts to use FU when none available
system.cpu00.iq.fu_full::SimdFloatAdd               0                       # attempts to use FU when none available
system.cpu00.iq.fu_full::SimdFloatAlu               0                       # attempts to use FU when none available
system.cpu00.iq.fu_full::SimdFloatCmp               0                       # attempts to use FU when none available
system.cpu00.iq.fu_full::SimdFloatCvt               0                       # attempts to use FU when none available
system.cpu00.iq.fu_full::SimdFloatDiv               0                       # attempts to use FU when none available
system.cpu00.iq.fu_full::SimdFloatMisc              0                       # attempts to use FU when none available
system.cpu00.iq.fu_full::SimdFloatMult              0                       # attempts to use FU when none available
system.cpu00.iq.fu_full::SimdFloatMultAcc            0                       # attempts to use FU when none available
system.cpu00.iq.fu_full::SimdFloatSqrt              0                       # attempts to use FU when none available
system.cpu00.iq.fu_full::MemRead                    0                       # attempts to use FU when none available
system.cpu00.iq.fu_full::MemWrite                   0                       # attempts to use FU when none available
system.cpu00.iq.fu_full::IprAccess                  0                       # attempts to use FU when none available
system.cpu00.iq.fu_full::InstPrefetch               0                       # attempts to use FU when none available
system.cpu00.iq.FU_type_0::No_OpClass               0      0.00%      0.00% # Type of FU issued
system.cpu00.iq.FU_type_0::IntAlu            68949358     40.00%     40.00% # Type of FU issued
system.cpu00.iq.FU_type_0::IntMult                  8      0.00%     40.00% # Type of FU issued
system.cpu00.iq.FU_type_0::IntDiv                   0      0.00%     40.00% # Type of FU issued
system.cpu00.iq.FU_type_0::FloatAdd                 0      0.00%     40.00% # Type of FU issued
system.cpu00.iq.FU_type_0::FloatCmp                 0      0.00%     40.00% # Type of FU issued
system.cpu00.iq.FU_type_0::FloatCvt                 0      0.00%     40.00% # Type of FU issued
system.cpu00.iq.FU_type_0::FloatMult                0      0.00%     40.00% # Type of FU issued
system.cpu00.iq.FU_type_0::FloatDiv                 0      0.00%     40.00% # Type of FU issued
system.cpu00.iq.FU_type_0::FloatSqrt                0      0.00%     40.00% # Type of FU issued
system.cpu00.iq.FU_type_0::SimdAdd                  0      0.00%     40.00% # Type of FU issued
system.cpu00.iq.FU_type_0::SimdAddAcc               0      0.00%     40.00% # Type of FU issued
system.cpu00.iq.FU_type_0::SimdAlu                  0      0.00%     40.00% # Type of FU issued
system.cpu00.iq.FU_type_0::SimdCmp                  0      0.00%     40.00% # Type of FU issued
system.cpu00.iq.FU_type_0::SimdCvt                  0      0.00%     40.00% # Type of FU issued
system.cpu00.iq.FU_type_0::SimdMisc                 0      0.00%     40.00% # Type of FU issued
system.cpu00.iq.FU_type_0::SimdMult                 0      0.00%     40.00% # Type of FU issued
system.cpu00.iq.FU_type_0::SimdMultAcc              0      0.00%     40.00% # Type of FU issued
system.cpu00.iq.FU_type_0::SimdShift                0      0.00%     40.00% # Type of FU issued
system.cpu00.iq.FU_type_0::SimdShiftAcc             0      0.00%     40.00% # Type of FU issued
system.cpu00.iq.FU_type_0::SimdSqrt                 0      0.00%     40.00% # Type of FU issued
system.cpu00.iq.FU_type_0::SimdFloatAdd             0      0.00%     40.00% # Type of FU issued
system.cpu00.iq.FU_type_0::SimdFloatAlu             0      0.00%     40.00% # Type of FU issued
system.cpu00.iq.FU_type_0::SimdFloatCmp             0      0.00%     40.00% # Type of FU issued
system.cpu00.iq.FU_type_0::SimdFloatCvt             0      0.00%     40.00% # Type of FU issued
system.cpu00.iq.FU_type_0::SimdFloatDiv             0      0.00%     40.00% # Type of FU issued
system.cpu00.iq.FU_type_0::SimdFloatMisc            3      0.00%     40.00% # Type of FU issued
system.cpu00.iq.FU_type_0::SimdFloatMult            0      0.00%     40.00% # Type of FU issued
system.cpu00.iq.FU_type_0::SimdFloatMultAcc            0      0.00%     40.00% # Type of FU issued
system.cpu00.iq.FU_type_0::SimdFloatSqrt            0      0.00%     40.00% # Type of FU issued
system.cpu00.iq.FU_type_0::MemRead           68941293     40.00%     80.00% # Type of FU issued
system.cpu00.iq.FU_type_0::MemWrite          34473257     20.00%    100.00% # Type of FU issued
system.cpu00.iq.FU_type_0::IprAccess                0      0.00%    100.00% # Type of FU issued
system.cpu00.iq.FU_type_0::InstPrefetch             0      0.00%    100.00% # Type of FU issued
system.cpu00.iq.FU_type_0::total            172363919                       # Type of FU issued
system.cpu00.iq.rate                         2.499036                       # Inst issue rate
system.cpu00.iq.fu_busy_cnt                         0                       # FU busy when requested
system.cpu00.iq.fu_busy_rate                        0                       # FU busy rate (busy events/executed inst)
system.cpu00.iq.int_inst_queue_reads        413692412                       # Number of integer instruction queue reads
system.cpu00.iq.int_inst_queue_writes       172375063                       # Number of integer instruction queue writes
system.cpu00.iq.int_inst_queue_wakeup_accesses    172362431                       # Number of integer instruction queue wakeup accesses
system.cpu00.iq.fp_inst_queue_reads                32                       # Number of floating instruction queue reads
system.cpu00.iq.fp_inst_queue_writes               16                       # Number of floating instruction queue writes
system.cpu00.iq.fp_inst_queue_wakeup_accesses           16                       # Number of floating instruction queue wakeup accesses
system.cpu00.iq.int_alu_accesses            172363903                       # Number of integer alu accesses
system.cpu00.iq.fp_alu_accesses                    16                       # Number of floating point alu accesses
system.cpu00.iew.lsq.thread0.forwLoads       34469135                       # Number of loads that had data forwarded from stores
system.cpu00.iew.lsq.thread0.invAddrLoads            0                       # Number of loads ignored due to an invalid address
system.cpu00.iew.lsq.thread0.squashedLoads         2229                       # Number of loads squashed
system.cpu00.iew.lsq.thread0.ignoredResponses            1                       # Number of memory responses ignored because the instruction is squashed
system.cpu00.iew.lsq.thread0.memOrderViolation          149                       # Number of memory ordering violations
system.cpu00.iew.lsq.thread0.squashedStores          865                       # Number of stores squashed
system.cpu00.iew.lsq.thread0.invAddrSwpfs            0                       # Number of software prefetches ignored due to an invalid address
system.cpu00.iew.lsq.thread0.blockedLoads            0                       # Number of blocked loads due to partial load-store forwarding
system.cpu00.iew.lsq.thread0.rescheduledLoads            7                       # Number of loads that were rescheduled
system.cpu00.iew.lsq.thread0.cacheBlocked            0                       # Number of times an access to memory failed due to the cache being blocked
system.cpu00.iew.iewIdleCycles                      0                       # Number of cycles IEW is idle
system.cpu00.iew.iewSquashCycles                  814                       # Number of cycles IEW is squashing
system.cpu00.iew.iewBlockCycles                   636                       # Number of cycles IEW is blocking
system.cpu00.iew.iewUnblockCycles                 112                       # Number of cycles IEW is unblocking
system.cpu00.iew.iewDispatchedInsts         172367051                       # Number of instructions dispatched to IQ
system.cpu00.iew.iewDispSquashedInsts             484                       # Number of squashed instructions skipped by dispatch
system.cpu00.iew.iewDispLoadInsts            68941903                       # Number of dispatched load instructions
system.cpu00.iew.iewDispStoreInsts           34473673                       # Number of dispatched store instructions
system.cpu00.iew.iewDispNonSpecInsts               72                       # Number of dispatched non-speculative instructions
system.cpu00.iew.iewIQFullEvents                    3                       # Number of times the IQ has become full, causing a stall
system.cpu00.iew.iewLSQFullEvents                   0                       # Number of times the LSQ has become full, causing a stall
system.cpu00.iew.memOrderViolationEvents          149                       # Number of memory order violations
system.cpu00.iew.predictedTakenIncorrect           86                       # Number of branches that were predicted taken incorrectly
system.cpu00.iew.predictedNotTakenIncorrect          571                       # Number of branches that were predicted not taken incorrectly
system.cpu00.iew.branchMispredicts                657                       # Number of branch mispredicts detected at execute
system.cpu00.iew.iewExecutedInsts           172362971                       # Number of executed instructions
system.cpu00.iew.iewExecLoadInsts            68941039                       # Number of load instructions executed
system.cpu00.iew.iewExecSquashedInsts             948                       # Number of squashed instructions skipped in execute
system.cpu00.iew.exec_swp                           0                       # number of swp insts executed
system.cpu00.iew.exec_nop                          22                       # number of nop insts executed
system.cpu00.iew.exec_refs                  103414078                       # number of memory reference insts executed
system.cpu00.iew.exec_branches               34471414                       # Number of branches executed
system.cpu00.iew.exec_stores                 34473039                       # Number of stores executed
system.cpu00.iew.exec_rate                   2.499022                       # Inst execution rate
system.cpu00.iew.wb_sent                    172362585                       # cumulative count of insts sent to commit
system.cpu00.iew.wb_count                   172362447                       # cumulative count of insts written-back
system.cpu00.iew.wb_producers               103414616                       # num instructions producing a value
system.cpu00.iew.wb_consumers               103425503                       # num instructions consuming a value
system.cpu00.iew.wb_penalized                       0                       # number of instrctions required to write to 'other' IQ
system.cpu00.iew.wb_rate                     2.499014                       # insts written-back per cycle
system.cpu00.iew.wb_fanout                   0.999895                       # average fanout of values written-back
system.cpu00.iew.wb_penalized_rate                  0                       # fraction of instructions written-back that wrote to 'other' IQ
system.cpu00.commit.commitSquashedInsts          7922                       # The number of squashed insts skipped by commit
system.cpu00.commit.commitNonSpecStalls            93                       # The number of times commit has been forced to stall to communicate backwards
system.cpu00.commit.branchMispredicts             625                       # The number of times a branch was mispredicted
system.cpu00.commit.committed_per_cycle::samples     68962606                       # Number of insts commited each cycle
system.cpu00.commit.committed_per_cycle::mean     2.499313                       # Number of insts commited each cycle
system.cpu00.commit.committed_per_cycle::stdev     1.580880                       # Number of insts commited each cycle
system.cpu00.commit.committed_per_cycle::underflows            0      0.00%      0.00% # Number of insts commited each cycle
system.cpu00.commit.committed_per_cycle::0        18138      0.03%      0.03% # Number of insts commited each cycle
system.cpu00.commit.committed_per_cycle::1     34471668     49.99%     50.01% # Number of insts commited each cycle
system.cpu00.commit.committed_per_cycle::2         1477      0.00%     50.01% # Number of insts commited each cycle
system.cpu00.commit.committed_per_cycle::3      8557724     12.41%     62.42% # Number of insts commited each cycle
system.cpu00.commit.committed_per_cycle::4     17357391     25.17%     87.59% # Number of insts commited each cycle
system.cpu00.commit.committed_per_cycle::5      8555849     12.41%    100.00% # Number of insts commited each cycle
system.cpu00.commit.committed_per_cycle::6           91      0.00%    100.00% # Number of insts commited each cycle
system.cpu00.commit.committed_per_cycle::7          165      0.00%    100.00% # Number of insts commited each cycle
system.cpu00.commit.committed_per_cycle::8          103      0.00%    100.00% # Number of insts commited each cycle
system.cpu00.commit.committed_per_cycle::overflows            0      0.00%    100.00% # Number of insts commited each cycle
system.cpu00.commit.committed_per_cycle::min_value            0                       # Number of insts commited each cycle
system.cpu00.commit.committed_per_cycle::max_value            8                       # Number of insts commited each cycle
system.cpu00.commit.committed_per_cycle::total     68962606                       # Number of insts commited each cycle
system.cpu00.commit.committedInsts          172355419                       # Number of instructions committed
system.cpu00.commit.committedOps            172359128                       # Number of ops (including micro ops) committed
system.cpu00.commit.swp_count                       0                       # Number of s/w prefetches committed
system.cpu00.commit.refs                    103412482                       # Number of memory references committed
system.cpu00.commit.loads                    68939674                       # Number of loads committed
system.cpu00.commit.membars                        26                       # Number of memory barriers committed
system.cpu00.commit.branches                 34470833                       # Number of branches committed
system.cpu00.commit.fp_insts                       16                       # Number of committed floating point instructions.
system.cpu00.commit.int_insts               137888785                       # Number of committed integer instructions.
system.cpu00.commit.function_calls                204                       # Number of function calls committed.
system.cpu00.commit.op_class_0::No_OpClass            0      0.00%      0.00% # Class of committed instruction
system.cpu00.commit.op_class_0::IntAlu       68946635     40.00%     40.00% # Class of committed instruction
system.cpu00.commit.op_class_0::IntMult             8      0.00%     40.00% # Class of committed instruction
system.cpu00.commit.op_class_0::IntDiv              0      0.00%     40.00% # Class of committed instruction
system.cpu00.commit.op_class_0::FloatAdd            0      0.00%     40.00% # Class of committed instruction
system.cpu00.commit.op_class_0::FloatCmp            0      0.00%     40.00% # Class of committed instruction
system.cpu00.commit.op_class_0::FloatCvt            0      0.00%     40.00% # Class of committed instruction
system.cpu00.commit.op_class_0::FloatMult            0      0.00%     40.00% # Class of committed instruction
system.cpu00.commit.op_class_0::FloatDiv            0      0.00%     40.00% # Class of committed instruction
system.cpu00.commit.op_class_0::FloatSqrt            0      0.00%     40.00% # Class of committed instruction
system.cpu00.commit.op_class_0::SimdAdd             0      0.00%     40.00% # Class of committed instruction
system.cpu00.commit.op_class_0::SimdAddAcc            0      0.00%     40.00% # Class of committed instruction
system.cpu00.commit.op_class_0::SimdAlu             0      0.00%     40.00% # Class of committed instruction
system.cpu00.commit.op_class_0::SimdCmp             0      0.00%     40.00% # Class of committed instruction
system.cpu00.commit.op_class_0::SimdCvt             0      0.00%     40.00% # Class of committed instruction
system.cpu00.commit.op_class_0::SimdMisc            0      0.00%     40.00% # Class of committed instruction
system.cpu00.commit.op_class_0::SimdMult            0      0.00%     40.00% # Class of committed instruction
system.cpu00.commit.op_class_0::SimdMultAcc            0      0.00%     40.00% # Class of committed instruction
system.cpu00.commit.op_class_0::SimdShift            0      0.00%     40.00% # Class of committed instruction
system.cpu00.commit.op_class_0::SimdShiftAcc            0      0.00%     40.00% # Class of committed instruction
system.cpu00.commit.op_class_0::SimdSqrt            0      0.00%     40.00% # Class of committed instruction
system.cpu00.commit.op_class_0::SimdFloatAdd            0      0.00%     40.00% # Class of committed instruction
system.cpu00.commit.op_class_0::SimdFloatAlu            0      0.00%     40.00% # Class of committed instruction
system.cpu00.commit.op_class_0::SimdFloatCmp            0      0.00%     40.00% # Class of committed instruction
system.cpu00.commit.op_class_0::SimdFloatCvt            0      0.00%     40.00% # Class of committed instruction
system.cpu00.commit.op_class_0::SimdFloatDiv            0      0.00%     40.00% # Class of committed instruction
system.cpu00.commit.op_class_0::SimdFloatMisc            3      0.00%     40.00% # Class of committed instruction
system.cpu00.commit.op_class_0::SimdFloatMult            0      0.00%     40.00% # Class of committed instruction
system.cpu00.commit.op_class_0::SimdFloatMultAcc            0      0.00%     40.00% # Class of committed instruction
system.cpu00.commit.op_class_0::SimdFloatSqrt            0      0.00%     40.00% # Class of committed instruction
system.cpu00.commit.op_class_0::MemRead      68939674     40.00%     80.00% # Class of committed instruction
system.cpu00.commit.op_class_0::MemWrite     34472808     20.00%    100.00% # Class of committed instruction
system.cpu00.commit.op_class_0::IprAccess            0      0.00%    100.00% # Class of committed instruction
system.cpu00.commit.op_class_0::InstPrefetch            0      0.00%    100.00% # Class of committed instruction
system.cpu00.commit.op_class_0::total       172359128                       # Class of committed instruction
system.cpu00.commit.bw_lim_events                 103                       # number cycles where commit BW limit reached
system.cpu00.rob.rob_reads                  241329032                       # The number of ROB reads
system.cpu00.rob.rob_writes                 344735501                       # The number of ROB writes
system.cpu00.timesIdled                           249                       # Number of times that the entire CPU went into an idle state and unscheduled itself
system.cpu00.idleCycles                          8168                       # Total number of cycles that the CPU has spent unscheduled due to idling
system.cpu00.committedInsts                 172355419                       # Number of Instructions Simulated
system.cpu00.committedOps                   172359128                       # Number of Ops (including micro ops) Simulated
system.cpu00.cpi                             0.400174                       # CPI: Cycles Per Instruction
system.cpu00.cpi_total                       0.400174                       # CPI: Total CPI of All Threads
system.cpu00.ipc                             2.498913                       # IPC: Instructions Per Cycle
system.cpu00.ipc_total                       2.498913                       # IPC: Total IPC of All Threads
system.cpu00.int_regfile_reads              172366166                       # number of integer regfile reads
system.cpu00.int_regfile_writes              68948254                       # number of integer regfile writes
system.cpu00.fp_regfile_reads                    2576                       # number of floating regfile reads
system.cpu00.cc_regfile_reads               723910447                       # number of cc regfile reads
system.cpu00.cc_regfile_writes              103415275                       # number of cc regfile writes
system.cpu00.misc_regfile_reads             104925553                       # number of misc regfile reads
system.cpu00.misc_regfile_writes                   54                       # number of misc regfile writes
system.cpu00.dcache.tags.replacements              72                       # number of replacements
system.cpu00.dcache.tags.tagsinuse         121.457724                       # Cycle average of tags in use
system.cpu00.dcache.tags.total_refs          68941313                       # Total number of references to valid blocks.
system.cpu00.dcache.tags.sampled_refs             214                       # Sample count of references to valid blocks.
system.cpu00.dcache.tags.avg_refs        322155.668224                       # Average number of references to valid blocks.
system.cpu00.dcache.tags.warmup_cycle               0                       # Cycle when the warmup percentage was hit.
system.cpu00.dcache.tags.occ_blocks::cpu00.data   121.457724                       # Average occupied blocks per requestor
system.cpu00.dcache.tags.occ_percent::cpu00.data     0.237222                       # Average percentage of cache occupancy
system.cpu00.dcache.tags.occ_percent::total     0.237222                       # Average percentage of cache occupancy
system.cpu00.dcache.tags.occ_task_id_blocks::1024          142                       # Occupied blocks per task id
system.cpu00.dcache.tags.age_task_id_blocks_1024::0           25                       # Occupied blocks per task id
system.cpu00.dcache.tags.age_task_id_blocks_1024::4          117                       # Occupied blocks per task id
system.cpu00.dcache.tags.occ_task_id_percent::1024     0.277344                       # Percentage of cache occupancy per task id
system.cpu00.dcache.tags.tag_accesses       137889247                       # Number of tag accesses
system.cpu00.dcache.tags.data_accesses      137889247                       # Number of data accesses
system.cpu00.dcache.ReadReq_hits::cpu00.data     34471417                       # number of ReadReq hits
system.cpu00.dcache.ReadReq_hits::total      34471417                       # number of ReadReq hits
system.cpu00.dcache.WriteReq_hits::cpu00.data     34470221                       # number of WriteReq hits
system.cpu00.dcache.WriteReq_hits::total     34470221                       # number of WriteReq hits
system.cpu00.dcache.LoadLockedReq_hits::cpu00.data           22                       # number of LoadLockedReq hits
system.cpu00.dcache.LoadLockedReq_hits::total           22                       # number of LoadLockedReq hits
system.cpu00.dcache.StoreCondReq_hits::cpu00.data           24                       # number of StoreCondReq hits
system.cpu00.dcache.StoreCondReq_hits::total           24                       # number of StoreCondReq hits
system.cpu00.dcache.demand_hits::cpu00.data     68941638                       # number of demand (read+write) hits
system.cpu00.dcache.demand_hits::total       68941638                       # number of demand (read+write) hits
system.cpu00.dcache.overall_hits::cpu00.data     68941638                       # number of overall hits
system.cpu00.dcache.overall_hits::total      68941638                       # number of overall hits
system.cpu00.dcache.ReadReq_misses::cpu00.data          244                       # number of ReadReq misses
system.cpu00.dcache.ReadReq_misses::total          244                       # number of ReadReq misses
system.cpu00.dcache.WriteReq_misses::cpu00.data         2502                       # number of WriteReq misses
system.cpu00.dcache.WriteReq_misses::total         2502                       # number of WriteReq misses
system.cpu00.dcache.LoadLockedReq_misses::cpu00.data            3                       # number of LoadLockedReq misses
system.cpu00.dcache.LoadLockedReq_misses::total            3                       # number of LoadLockedReq misses
system.cpu00.dcache.StoreCondReq_misses::cpu00.data            1                       # number of StoreCondReq misses
system.cpu00.dcache.StoreCondReq_misses::total            1                       # number of StoreCondReq misses
system.cpu00.dcache.demand_misses::cpu00.data         2746                       # number of demand (read+write) misses
system.cpu00.dcache.demand_misses::total         2746                       # number of demand (read+write) misses
system.cpu00.dcache.overall_misses::cpu00.data         2746                       # number of overall misses
system.cpu00.dcache.overall_misses::total         2746                       # number of overall misses
system.cpu00.dcache.ReadReq_miss_latency::cpu00.data     10139990                       # number of ReadReq miss cycles
system.cpu00.dcache.ReadReq_miss_latency::total     10139990                       # number of ReadReq miss cycles
system.cpu00.dcache.WriteReq_miss_latency::cpu00.data    123651000                       # number of WriteReq miss cycles
system.cpu00.dcache.WriteReq_miss_latency::total    123651000                       # number of WriteReq miss cycles
system.cpu00.dcache.LoadLockedReq_miss_latency::cpu00.data       133500                       # number of LoadLockedReq miss cycles
system.cpu00.dcache.LoadLockedReq_miss_latency::total       133500                       # number of LoadLockedReq miss cycles
system.cpu00.dcache.StoreCondReq_miss_latency::cpu00.data         7500                       # number of StoreCondReq miss cycles
system.cpu00.dcache.StoreCondReq_miss_latency::total         7500                       # number of StoreCondReq miss cycles
system.cpu00.dcache.demand_miss_latency::cpu00.data    133790990                       # number of demand (read+write) miss cycles
system.cpu00.dcache.demand_miss_latency::total    133790990                       # number of demand (read+write) miss cycles
system.cpu00.dcache.overall_miss_latency::cpu00.data    133790990                       # number of overall miss cycles
system.cpu00.dcache.overall_miss_latency::total    133790990                       # number of overall miss cycles
system.cpu00.dcache.ReadReq_accesses::cpu00.data     34471661                       # number of ReadReq accesses(hits+misses)
system.cpu00.dcache.ReadReq_accesses::total     34471661                       # number of ReadReq accesses(hits+misses)
system.cpu00.dcache.WriteReq_accesses::cpu00.data     34472723                       # number of WriteReq accesses(hits+misses)
system.cpu00.dcache.WriteReq_accesses::total     34472723                       # number of WriteReq accesses(hits+misses)
system.cpu00.dcache.LoadLockedReq_accesses::cpu00.data           25                       # number of LoadLockedReq accesses(hits+misses)
system.cpu00.dcache.LoadLockedReq_accesses::total           25                       # number of LoadLockedReq accesses(hits+misses)
system.cpu00.dcache.StoreCondReq_accesses::cpu00.data           25                       # number of StoreCondReq accesses(hits+misses)
system.cpu00.dcache.StoreCondReq_accesses::total           25                       # number of StoreCondReq accesses(hits+misses)
system.cpu00.dcache.demand_accesses::cpu00.data     68944384                       # number of demand (read+write) accesses
system.cpu00.dcache.demand_accesses::total     68944384                       # number of demand (read+write) accesses
system.cpu00.dcache.overall_accesses::cpu00.data     68944384                       # number of overall (read+write) accesses
system.cpu00.dcache.overall_accesses::total     68944384                       # number of overall (read+write) accesses
system.cpu00.dcache.ReadReq_miss_rate::cpu00.data     0.000007                       # miss rate for ReadReq accesses
system.cpu00.dcache.ReadReq_miss_rate::total     0.000007                       # miss rate for ReadReq accesses
system.cpu00.dcache.WriteReq_miss_rate::cpu00.data     0.000073                       # miss rate for WriteReq accesses
system.cpu00.dcache.WriteReq_miss_rate::total     0.000073                       # miss rate for WriteReq accesses
[...]
system.tol2bus.pkt_count_system.cpu10.dcache.mem_side::system.l2.cpu_side       496424                       # Packet count per connected master and slave (bytes)
system.tol2bus.pkt_count_system.cpu11.icache.mem_side::system.l2.cpu_side         4356                       # Packet count per connected master and slave (bytes)
system.tol2bus.pkt_count_system.cpu11.dcache.mem_side::system.l2.cpu_side       451039                       # Packet count per connected master and slave (bytes)
system.tol2bus.pkt_count_system.cpu12.icache.mem_side::system.l2.cpu_side         4366                       # Packet count per connected master and slave (bytes)
system.tol2bus.pkt_count_system.cpu12.dcache.mem_side::system.l2.cpu_side       507956                       # Packet count per connected master and slave (bytes)
system.tol2bus.pkt_count_system.cpu13.icache.mem_side::system.l2.cpu_side         3446                       # Packet count per connected master and slave (bytes)
system.tol2bus.pkt_count_system.cpu13.dcache.mem_side::system.l2.cpu_side       447122                       # Packet count per connected master and slave (bytes)
system.tol2bus.pkt_count_system.cpu14.icache.mem_side::system.l2.cpu_side         3562                       # Packet count per connected master and slave (bytes)
system.tol2bus.pkt_count_system.cpu14.dcache.mem_side::system.l2.cpu_side       456581                       # Packet count per connected master and slave (bytes)
system.tol2bus.pkt_count_system.cpu15.icache.mem_side::system.l2.cpu_side         3414                       # Packet count per connected master and slave (bytes)
system.tol2bus.pkt_count_system.cpu15.dcache.mem_side::system.l2.cpu_side       434103                       # Packet count per connected master and slave (bytes)
system.tol2bus.pkt_count_system.cpu16.icache.mem_side::system.l2.cpu_side         4386                       # Packet count per connected master and slave (bytes)
system.tol2bus.pkt_count_system.cpu16.dcache.mem_side::system.l2.cpu_side       485387                       # Packet count per connected master and slave (bytes)
system.tol2bus.pkt_count::total               7186243                       # Packet count per connected master and slave (bytes)
system.tol2bus.pkt_size_system.cpu00.icache.mem_side::system.l2.cpu_side        24832                       # Cumulative packet size per connected master and slave (bytes)
system.tol2bus.pkt_size_system.cpu00.dcache.mem_side::system.l2.cpu_side        24704                       # Cumulative packet size per connected master and slave (bytes)
system.tol2bus.pkt_size_system.cpu01.icache.mem_side::system.l2.cpu_side       115520                       # Cumulative packet size per connected master and slave (bytes)
system.tol2bus.pkt_size_system.cpu01.dcache.mem_side::system.l2.cpu_side      2036928                       # Cumulative packet size per connected master and slave (bytes)
system.tol2bus.pkt_size_system.cpu02.icache.mem_side::system.l2.cpu_side       112960                       # Cumulative packet size per connected master and slave (bytes)
system.tol2bus.pkt_size_system.cpu02.dcache.mem_side::system.l2.cpu_side      1659392                       # Cumulative packet size per connected master and slave (bytes)
system.tol2bus.pkt_size_system.cpu03.icache.mem_side::system.l2.cpu_side       101056                       # Cumulative packet size per connected master and slave (bytes)
system.tol2bus.pkt_size_system.cpu03.dcache.mem_side::system.l2.cpu_side      1819328                       # Cumulative packet size per connected master and slave (bytes)
system.tol2bus.pkt_size_system.cpu04.icache.mem_side::system.l2.cpu_side       107712                       # Cumulative packet size per connected master and slave (bytes)
system.tol2bus.pkt_size_system.cpu04.dcache.mem_side::system.l2.cpu_side      1968320                       # Cumulative packet size per connected master and slave (bytes)
system.tol2bus.pkt_size_system.cpu05.icache.mem_side::system.l2.cpu_side       135104                       # Cumulative packet size per connected master and slave (bytes)
system.tol2bus.pkt_size_system.cpu05.dcache.mem_side::system.l2.cpu_side      1825280                       # Cumulative packet size per connected master and slave (bytes)
system.tol2bus.pkt_size_system.cpu06.icache.mem_side::system.l2.cpu_side       144832                       # Cumulative packet size per connected master and slave (bytes)
system.tol2bus.pkt_size_system.cpu06.dcache.mem_side::system.l2.cpu_side      1854784                       # Cumulative packet size per connected master and slave (bytes)
system.tol2bus.pkt_size_system.cpu07.icache.mem_side::system.l2.cpu_side       133312                       # Cumulative packet size per connected master and slave (bytes)
system.tol2bus.pkt_size_system.cpu07.dcache.mem_side::system.l2.cpu_side      1962304                       # Cumulative packet size per connected master and slave (bytes)
system.tol2bus.pkt_size_system.cpu08.icache.mem_side::system.l2.cpu_side       139200                       # Cumulative packet size per connected master and slave (bytes)
system.tol2bus.pkt_size_system.cpu08.dcache.mem_side::system.l2.cpu_side      1842752                       # Cumulative packet size per connected master and slave (bytes)
system.tol2bus.pkt_size_system.cpu09.icache.mem_side::system.l2.cpu_side       136704                       # Cumulative packet size per connected master and slave (bytes)
system.tol2bus.pkt_size_system.cpu09.dcache.mem_side::system.l2.cpu_side      1989376                       # Cumulative packet size per connected master and slave (bytes)
system.tol2bus.pkt_size_system.cpu10.icache.mem_side::system.l2.cpu_side       136896                       # Cumulative packet size per connected master and slave (bytes)
system.tol2bus.pkt_size_system.cpu10.dcache.mem_side::system.l2.cpu_side      2028096                       # Cumulative packet size per connected master and slave (bytes)
system.tol2bus.pkt_size_system.cpu11.icache.mem_side::system.l2.cpu_side       139392                       # Cumulative packet size per connected master and slave (bytes)
system.tol2bus.pkt_size_system.cpu11.dcache.mem_side::system.l2.cpu_side      2011776                       # Cumulative packet size per connected master and slave (bytes)
system.tol2bus.pkt_size_system.cpu12.icache.mem_side::system.l2.cpu_side       139712                       # Cumulative packet size per connected master and slave (bytes)
system.tol2bus.pkt_size_system.cpu12.dcache.mem_side::system.l2.cpu_side      2141376                       # Cumulative packet size per connected master and slave (bytes)
system.tol2bus.pkt_size_system.cpu13.icache.mem_side::system.l2.cpu_side       110272                       # Cumulative packet size per connected master and slave (bytes)
system.tol2bus.pkt_size_system.cpu13.dcache.mem_side::system.l2.cpu_side      1740992                       # Cumulative packet size per connected master and slave (bytes)
system.tol2bus.pkt_size_system.cpu14.icache.mem_side::system.l2.cpu_side       113920                       # Cumulative packet size per connected master and slave (bytes)
system.tol2bus.pkt_size_system.cpu14.dcache.mem_side::system.l2.cpu_side      1918016                       # Cumulative packet size per connected master and slave (bytes)
system.tol2bus.pkt_size_system.cpu15.icache.mem_side::system.l2.cpu_side       109248                       # Cumulative packet size per connected master and slave (bytes)
system.tol2bus.pkt_size_system.cpu15.dcache.mem_side::system.l2.cpu_side      1865856                       # Cumulative packet size per connected master and slave (bytes)
system.tol2bus.pkt_size_system.cpu16.icache.mem_side::system.l2.cpu_side       140352                       # Cumulative packet size per connected master and slave (bytes)
system.tol2bus.pkt_size_system.cpu16.dcache.mem_side::system.l2.cpu_side      1812416                       # Cumulative packet size per connected master and slave (bytes)
system.tol2bus.pkt_size::total               32542720                       # Cumulative packet size per connected master and slave (bytes)
system.tol2bus.snoops                         5453987                       # Total snoops (count)
system.tol2bus.snoop_fanout::samples          6331172                       # Request fanout histogram
system.tol2bus.snoop_fanout::mean                  33                       # Request fanout histogram
system.tol2bus.snoop_fanout::stdev                  0                       # Request fanout histogram
system.tol2bus.snoop_fanout::underflows             0      0.00%      0.00% # Request fanout histogram
system.tol2bus.snoop_fanout::0                      0      0.00%      0.00% # Request fanout histogram
system.tol2bus.snoop_fanout::1                      0      0.00%      0.00% # Request fanout histogram
system.tol2bus.snoop_fanout::2                      0      0.00%      0.00% # Request fanout histogram
system.tol2bus.snoop_fanout::3                      0      0.00%      0.00% # Request fanout histogram
system.tol2bus.snoop_fanout::4                      0      0.00%      0.00% # Request fanout histogram
system.tol2bus.snoop_fanout::5                      0      0.00%      0.00% # Request fanout histogram
system.tol2bus.snoop_fanout::6                      0      0.00%      0.00% # Request fanout histogram
system.tol2bus.snoop_fanout::7                      0      0.00%      0.00% # Request fanout histogram
system.tol2bus.snoop_fanout::8                      0      0.00%      0.00% # Request fanout histogram
system.tol2bus.snoop_fanout::9                      0      0.00%      0.00% # Request fanout histogram
system.tol2bus.snoop_fanout::10                     0      0.00%      0.00% # Request fanout histogram
system.tol2bus.snoop_fanout::11                     0      0.00%      0.00% # Request fanout histogram
system.tol2bus.snoop_fanout::12                     0      0.00%      0.00% # Request fanout histogram
system.tol2bus.snoop_fanout::13                     0      0.00%      0.00% # Request fanout histogram
system.tol2bus.snoop_fanout::14                     0      0.00%      0.00% # Request fanout histogram
system.tol2bus.snoop_fanout::15                     0      0.00%      0.00% # Request fanout histogram
system.tol2bus.snoop_fanout::16                     0      0.00%      0.00% # Request fanout histogram
system.tol2bus.snoop_fanout::17                     0      0.00%      0.00% # Request fanout histogram
system.tol2bus.snoop_fanout::18                     0      0.00%      0.00% # Request fanout histogram
system.tol2bus.snoop_fanout::19                     0      0.00%      0.00% # Request fanout histogram
system.tol2bus.snoop_fanout::20                     0      0.00%      0.00% # Request fanout histogram
system.tol2bus.snoop_fanout::21                     0      0.00%      0.00% # Request fanout histogram
system.tol2bus.snoop_fanout::22                     0      0.00%      0.00% # Request fanout histogram
system.tol2bus.snoop_fanout::23                     0      0.00%      0.00% # Request fanout histogram
system.tol2bus.snoop_fanout::24                     0      0.00%      0.00% # Request fanout histogram
system.tol2bus.snoop_fanout::25                     0      0.00%      0.00% # Request fanout histogram
system.tol2bus.snoop_fanout::26                     0      0.00%      0.00% # Request fanout histogram
system.tol2bus.snoop_fanout::27                     0      0.00%      0.00% # Request fanout histogram
system.tol2bus.snoop_fanout::28                     0      0.00%      0.00% # Request fanout histogram
system.tol2bus.snoop_fanout::29                     0      0.00%      0.00% # Request fanout histogram
system.tol2bus.snoop_fanout::30                     0      0.00%      0.00% # Request fanout histogram
system.tol2bus.snoop_fanout::31                     0      0.00%      0.00% # Request fanout histogram
system.tol2bus.snoop_fanout::32                     0      0.00%      0.00% # Request fanout histogram
system.tol2bus.snoop_fanout::33               6331172    100.00%    100.00% # Request fanout histogram
system.tol2bus.snoop_fanout::34                     0      0.00%    100.00% # Request fanout histogram
system.tol2bus.snoop_fanout::overflows              0      0.00%    100.00% # Request fanout histogram
system.tol2bus.snoop_fanout::min_value             33                       # Request fanout histogram
system.tol2bus.snoop_fanout::max_value             33                       # Request fanout histogram
system.tol2bus.snoop_fanout::total            6331172                       # Request fanout histogram
system.tol2bus.reqLayer0.occupancy         3201813243                       # Layer occupancy (ticks)
system.tol2bus.reqLayer0.utilization              4.6                       # Layer utilization (%)
system.tol2bus.respLayer0.occupancy            582998                       # Layer occupancy (ticks)
system.tol2bus.respLayer0.utilization             0.0                       # Layer utilization (%)
system.tol2bus.respLayer1.occupancy            573494                       # Layer occupancy (ticks)
system.tol2bus.respLayer1.utilization             0.0                       # Layer utilization (%)
system.tol2bus.respLayer4.occupancy           2708496                       # Layer occupancy (ticks)
system.tol2bus.respLayer4.utilization             0.0                       # Layer utilization (%)
system.tol2bus.respLayer5.occupancy         438964453                       # Layer occupancy (ticks)
system.tol2bus.respLayer5.utilization             0.6                       # Layer utilization (%)
system.tol2bus.respLayer8.occupancy           2692321                       # Layer occupancy (ticks)
system.tol2bus.respLayer8.utilization             0.0                       # Layer utilization (%)
system.tol2bus.respLayer9.occupancy         444716680                       # Layer occupancy (ticks)
system.tol2bus.respLayer9.utilization             0.6                       # Layer utilization (%)
system.tol2bus.respLayer12.occupancy          2409840                       # Layer occupancy (ticks)
system.tol2bus.respLayer12.utilization            0.0                       # Layer utilization (%)
system.tol2bus.respLayer13.occupancy        605013986                       # Layer occupancy (ticks)
system.tol2bus.respLayer13.utilization            0.9                       # Layer utilization (%)
system.tol2bus.respLayer16.occupancy          2567817                       # Layer occupancy (ticks)
system.tol2bus.respLayer16.utilization            0.0                       # Layer utilization (%)
system.tol2bus.respLayer17.occupancy        601808904                       # Layer occupancy (ticks)
system.tol2bus.respLayer17.utilization            0.9                       # Layer utilization (%)
system.tol2bus.respLayer20.occupancy          3169990                       # Layer occupancy (ticks)
system.tol2bus.respLayer20.utilization            0.0                       # Layer utilization (%)
system.tol2bus.respLayer21.occupancy        616659386                       # Layer occupancy (ticks)
system.tol2bus.respLayer21.utilization            0.9                       # Layer utilization (%)
system.tol2bus.respLayer24.occupancy          3473325                       # Layer occupancy (ticks)
system.tol2bus.respLayer24.utilization            0.0                       # Layer utilization (%)
system.tol2bus.respLayer25.occupancy        493614468                       # Layer occupancy (ticks)
system.tol2bus.respLayer25.utilization            0.7                       # Layer utilization (%)
system.tol2bus.respLayer28.occupancy          3163993                       # Layer occupancy (ticks)
system.tol2bus.respLayer28.utilization            0.0                       # Layer utilization (%)
system.tol2bus.respLayer29.occupancy        627700546                       # Layer occupancy (ticks)
system.tol2bus.respLayer29.utilization            0.9                       # Layer utilization (%)
system.tol2bus.respLayer32.occupancy          3264991                       # Layer occupancy (ticks)
system.tol2bus.respLayer32.utilization            0.0                       # Layer utilization (%)
system.tol2bus.respLayer33.occupancy        490831070                       # Layer occupancy (ticks)
system.tol2bus.respLayer33.utilization            0.7                       # Layer utilization (%)
system.tol2bus.respLayer36.occupancy          3206493                       # Layer occupancy (ticks)
system.tol2bus.respLayer36.utilization            0.0                       # Layer utilization (%)
system.tol2bus.respLayer37.occupancy        453817816                       # Layer occupancy (ticks)
system.tol2bus.respLayer37.utilization            0.7                       # Layer utilization (%)
system.tol2bus.respLayer40.occupancy          3233424                       # Layer occupancy (ticks)
system.tol2bus.respLayer40.utilization            0.0                       # Layer utilization (%)
system.tol2bus.respLayer41.occupancy        629287018                       # Layer occupancy (ticks)
system.tol2bus.respLayer41.utilization            0.9                       # Layer utilization (%)
system.tol2bus.respLayer44.occupancy          3268498                       # Layer occupancy (ticks)
system.tol2bus.respLayer44.utilization            0.0                       # Layer utilization (%)
system.tol2bus.respLayer45.occupancy        559070447                       # Layer occupancy (ticks)
system.tol2bus.respLayer45.utilization            0.8                       # Layer utilization (%)
system.tol2bus.respLayer48.occupancy          3278490                       # Layer occupancy (ticks)
system.tol2bus.respLayer48.utilization            0.0                       # Layer utilization (%)
system.tol2bus.respLayer49.occupancy        648867557                       # Layer occupancy (ticks)
system.tol2bus.respLayer49.utilization            0.9                       # Layer utilization (%)
system.tol2bus.respLayer52.occupancy          2595921                       # Layer occupancy (ticks)
system.tol2bus.respLayer52.utilization            0.0                       # Layer utilization (%)
system.tol2bus.respLayer53.occupancy        570222876                       # Layer occupancy (ticks)
system.tol2bus.respLayer53.utilization            0.8                       # Layer utilization (%)
system.tol2bus.respLayer56.occupancy          2683945                       # Layer occupancy (ticks)
system.tol2bus.respLayer56.utilization            0.0                       # Layer utilization (%)
system.tol2bus.respLayer57.occupancy        576951473                       # Layer occupancy (ticks)
system.tol2bus.respLayer57.utilization            0.8                       # Layer utilization (%)
system.tol2bus.respLayer60.occupancy          2562996                       # Layer occupancy (ticks)
system.tol2bus.respLayer60.utilization            0.0                       # Layer utilization (%)
system.tol2bus.respLayer61.occupancy        536257961                       # Layer occupancy (ticks)
system.tol2bus.respLayer61.utilization            0.8                       # Layer utilization (%)
system.tol2bus.respLayer64.occupancy          3290993                       # Layer occupancy (ticks)
system.tol2bus.respLayer64.utilization            0.0                       # Layer utilization (%)
system.tol2bus.respLayer65.occupancy        628750335                       # Layer occupancy (ticks)
system.tol2bus.respLayer65.utilization            0.9                       # Layer utilization (%)

---------- End Simulation Statistics   ----------
