
---------- Begin Simulation Statistics ----------
sim_seconds                                  0.072680                       # Number of seconds simulated
sim_ticks                                 72679709000                       # Number of ticks simulated
final_tick                                72679709000                       # Number of ticks from beginning of simulation (restored from checkpoints and never reset)
sim_freq                                 1000000000000                       # Frequency of simulated ticks
host_inst_rate                                 128297                       # Simulator instruction rate (inst/s)
host_op_rate                                   131732                       # Simulator op (including micro ops) rate (op/s)
host_tick_rate                               25335626                       # Simulator tick rate (ticks/s)
host_mem_usage                                 742624                       # Number of bytes of host memory used
host_seconds                                  2868.68                       # Real time elapsed on the host
sim_insts                                   368043232                       # Number of instructions simulated
sim_ops                                     377895494                       # Number of ops (including micro ops) simulated
system.voltage_domain.voltage                       1                       # Voltage in Volts
system.clk_domain.clock                          1000                       # Clock period in ticks
system.physmem.bytes_read::cpu0.inst            22592                       # Number of bytes read from this memory
system.physmem.bytes_read::cpu0.data            18368                       # Number of bytes read from this memory
system.physmem.bytes_read::cpu1.inst             2048                       # Number of bytes read from this memory
system.physmem.bytes_read::cpu1.data          1364864                       # Number of bytes read from this memory
system.physmem.bytes_read::cpu2.inst             6080                       # Number of bytes read from this memory
system.physmem.bytes_read::cpu2.data          1411648                       # Number of bytes read from this memory
system.physmem.bytes_read::cpu3.inst             3520                       # Number of bytes read from this memory
system.physmem.bytes_read::cpu3.data          1323328                       # Number of bytes read from this memory
system.physmem.bytes_read::cpu4.inst             1088                       # Number of bytes read from this memory
system.physmem.bytes_read::cpu4.data          1352192                       # Number of bytes read from this memory
system.physmem.bytes_read::cpu5.inst             1920                       # Number of bytes read from this memory
system.physmem.bytes_read::cpu5.data          1250176                       # Number of bytes read from this memory
system.physmem.bytes_read::cpu6.inst              960                       # Number of bytes read from this memory
system.physmem.bytes_read::cpu6.data          1372352                       # Number of bytes read from this memory
system.physmem.bytes_read::cpu7.inst             3456                       # Number of bytes read from this memory
system.physmem.bytes_read::cpu7.data          1181760                       # Number of bytes read from this memory
system.physmem.bytes_read::cpu8.inst             4224                       # Number of bytes read from this memory
system.physmem.bytes_read::cpu8.data          1248000                       # Number of bytes read from this memory
system.physmem.bytes_read::total             10568576                       # Number of bytes read from this memory
system.physmem.bytes_inst_read::cpu0.inst        22592                       # Number of instructions bytes read from this memory
system.physmem.bytes_inst_read::cpu1.inst         2048                       # Number of instructions bytes read from this memory
system.physmem.bytes_inst_read::cpu2.inst         6080                       # Number of instructions bytes read from this memory
system.physmem.bytes_inst_read::cpu3.inst         3520                       # Number of instructions bytes read from this memory
system.physmem.bytes_inst_read::cpu4.inst         1088                       # Number of instructions bytes read from this memory
system.physmem.bytes_inst_read::cpu5.inst         1920                       # Number of instructions bytes read from this memory
system.physmem.bytes_inst_read::cpu6.inst          960                       # Number of instructions bytes read from this memory
system.physmem.bytes_inst_read::cpu7.inst         3456                       # Number of instructions bytes read from this memory
system.physmem.bytes_inst_read::cpu8.inst         4224                       # Number of instructions bytes read from this memory
system.physmem.bytes_inst_read::total           45888                       # Number of instructions bytes read from this memory
system.physmem.bytes_written::writebacks       111808                       # Number of bytes written to this memory
system.physmem.bytes_written::total            111808                       # Number of bytes written to this memory
system.physmem.num_reads::cpu0.inst               353                       # Number of read requests responded to by this memory
system.physmem.num_reads::cpu0.data               287                       # Number of read requests responded to by this memory
system.physmem.num_reads::cpu1.inst                32                       # Number of read requests responded to by this memory
system.physmem.num_reads::cpu1.data             21326                       # Number of read requests responded to by this memory
system.physmem.num_reads::cpu2.inst                95                       # Number of read requests responded to by this memory
system.physmem.num_reads::cpu2.data             22057                       # Number of read requests responded to by this memory
system.physmem.num_reads::cpu3.inst                55                       # Number of read requests responded to by this memory
system.physmem.num_reads::cpu3.data             20677                       # Number of read requests responded to by this memory
system.physmem.num_reads::cpu4.inst                17                       # Number of read requests responded to by this memory
system.physmem.num_reads::cpu4.data             21128                       # Number of read requests responded to by this memory
system.physmem.num_reads::cpu5.inst                30                       # Number of read requests responded to by this memory
system.physmem.num_reads::cpu5.data             19534                       # Number of read requests responded to by this memory
system.physmem.num_reads::cpu6.inst                15                       # Number of read requests responded to by this memory
system.physmem.num_reads::cpu6.data             21443                       # Number of read requests responded to by this memory
system.physmem.num_reads::cpu7.inst                54                       # Number of read requests responded to by this memory
system.physmem.num_reads::cpu7.data             18465                       # Number of read requests responded to by this memory
system.physmem.num_reads::cpu8.inst                66                       # Number of read requests responded to by this memory
system.physmem.num_reads::cpu8.data             19500                       # Number of read requests responded to by this memory
system.physmem.num_reads::total                165134                       # Number of read requests responded to by this memory
system.physmem.num_writes::writebacks            1747                       # Number of write requests responded to by this memory
system.physmem.num_writes::total                 1747                       # Number of write requests responded to by this memory
system.physmem.bw_read::cpu0.inst              310843                       # Total read bandwidth from this memory (bytes/s)
system.physmem.bw_read::cpu0.data              252725                       # Total read bandwidth from this memory (bytes/s)
system.physmem.bw_read::cpu1.inst               28178                       # Total read bandwidth from this memory (bytes/s)
system.physmem.bw_read::cpu1.data            18779162                       # Total read bandwidth from this memory (bytes/s)
system.physmem.bw_read::cpu2.inst               83655                       # Total read bandwidth from this memory (bytes/s)
system.physmem.bw_read::cpu2.data            19422863                       # Total read bandwidth from this memory (bytes/s)
system.physmem.bw_read::cpu3.inst               48432                       # Total read bandwidth from this memory (bytes/s)
system.physmem.bw_read::cpu3.data            18207668                       # Total read bandwidth from this memory (bytes/s)
system.physmem.bw_read::cpu4.inst               14970                       # Total read bandwidth from this memory (bytes/s)
system.physmem.bw_read::cpu4.data            18604808                       # Total read bandwidth from this memory (bytes/s)
system.physmem.bw_read::cpu5.inst               26417                       # Total read bandwidth from this memory (bytes/s)
system.physmem.bw_read::cpu5.data            17201170                       # Total read bandwidth from this memory (bytes/s)
system.physmem.bw_read::cpu6.inst               13209                       # Total read bandwidth from this memory (bytes/s)
system.physmem.bw_read::cpu6.data            18882189                       # Total read bandwidth from this memory (bytes/s)
system.physmem.bw_read::cpu7.inst               47551                       # Total read bandwidth from this memory (bytes/s)
system.physmem.bw_read::cpu7.data            16259834                       # Total read bandwidth from this memory (bytes/s)
system.physmem.bw_read::cpu8.inst               58118                       # Total read bandwidth from this memory (bytes/s)
system.physmem.bw_read::cpu8.data            17171230                       # Total read bandwidth from this memory (bytes/s)
system.physmem.bw_read::total               145413020                       # Total read bandwidth from this memory (bytes/s)
system.physmem.bw_inst_read::cpu0.inst         310843                       # Instruction read bandwidth from this memory (bytes/s)
system.physmem.bw_inst_read::cpu1.inst          28178                       # Instruction read bandwidth from this memory (bytes/s)
system.physmem.bw_inst_read::cpu2.inst          83655                       # Instruction read bandwidth from this memory (bytes/s)
system.physmem.bw_inst_read::cpu3.inst          48432                       # Instruction read bandwidth from this memory (bytes/s)
system.physmem.bw_inst_read::cpu4.inst          14970                       # Instruction read bandwidth from this memory (bytes/s)
system.physmem.bw_inst_read::cpu5.inst          26417                       # Instruction read bandwidth from this memory (bytes/s)
system.physmem.bw_inst_read::cpu6.inst          13209                       # Instruction read bandwidth from this memory (bytes/s)
system.physmem.bw_inst_read::cpu7.inst          47551                       # Instruction read bandwidth from this memory (bytes/s)
system.physmem.bw_inst_read::cpu8.inst          58118                       # Instruction read bandwidth from this memory (bytes/s)
system.physmem.bw_inst_read::total             631373                       # Instruction read bandwidth from this memory (bytes/s)
system.physmem.bw_write::writebacks           1538366                       # Write bandwidth from this memory (bytes/s)
system.physmem.bw_write::total                1538366                       # Write bandwidth from this memory (bytes/s)
system.physmem.bw_total::writebacks           1538366                       # Total bandwidth to/from this memory (bytes/s)
system.physmem.bw_total::cpu0.inst             310843                       # Total bandwidth to/from this memory (bytes/s)
system.physmem.bw_total::cpu0.data             252725                       # Total bandwidth to/from this memory (bytes/s)
system.physmem.bw_total::cpu1.inst              28178                       # Total bandwidth to/from this memory (bytes/s)
system.physmem.bw_total::cpu1.data           18779162                       # Total bandwidth to/from this memory (bytes/s)
system.physmem.bw_total::cpu2.inst              83655                       # Total bandwidth to/from this memory (bytes/s)
system.physmem.bw_total::cpu2.data           19422863                       # Total bandwidth to/from this memory (bytes/s)
system.physmem.bw_total::cpu3.inst              48432                       # Total bandwidth to/from this memory (bytes/s)
system.physmem.bw_total::cpu3.data           18207668                       # Total bandwidth to/from this memory (bytes/s)
system.physmem.bw_total::cpu4.inst              14970                       # Total bandwidth to/from this memory (bytes/s)
system.physmem.bw_total::cpu4.data           18604808                       # Total bandwidth to/from this memory (bytes/s)
system.physmem.bw_total::cpu5.inst              26417                       # Total bandwidth to/from this memory (bytes/s)
system.physmem.bw_total::cpu5.data           17201170                       # Total bandwidth to/from this memory (bytes/s)
system.physmem.bw_total::cpu6.inst              13209                       # Total bandwidth to/from this memory (bytes/s)
system.physmem.bw_total::cpu6.data           18882189                       # Total bandwidth to/from this memory (bytes/s)
system.physmem.bw_total::cpu7.inst              47551                       # Total bandwidth to/from this memory (bytes/s)
system.physmem.bw_total::cpu7.data           16259834                       # Total bandwidth to/from this memory (bytes/s)
system.physmem.bw_total::cpu8.inst              58118                       # Total bandwidth to/from this memory (bytes/s)
system.physmem.bw_total::cpu8.data           17171230                       # Total bandwidth to/from this memory (bytes/s)
system.physmem.bw_total::total              146951386                       # Total bandwidth to/from this memory (bytes/s)
system.cpu0.branchPred.lookups               36328174                       # Number of BP lookups
system.cpu0.branchPred.condPredicted         36326892                       # Number of conditional branches predicted
system.cpu0.branchPred.condIncorrect              792                       # Number of conditional branches incorrect
system.cpu0.branchPred.BTBLookups            36325720                       # Number of BTB lookups
system.cpu0.branchPred.BTBHits               36325273                       # Number of BTB hits
system.cpu0.branchPred.BTBCorrect                   0                       # Number of correct BTB predictions (this stat may not work properly.
system.cpu0.branchPred.BTBHitPct            99.998769                       # BTB Hit Percentage
system.cpu0.branchPred.usedRAS                    478                       # Number of times the RAS was used to get a target.
system.cpu0.branchPred.RASInCorrect                55                       # Number of incorrect RAS predictions.
system.cpu0.dstage2_mmu.stage2_tlb.walker.walks            0                       # Table walker walks requested
system.cpu0.dstage2_mmu.stage2_tlb.walker.walkRequestOrigin_Requested::Data            0                       # Table walker requests started/completed, data/inst
system.cpu0.dstage2_mmu.stage2_tlb.walker.walkRequestOrigin_Requested::Inst            0                       # Table walker requests started/completed, data/inst
system.cpu0.dstage2_mmu.stage2_tlb.walker.walkRequestOrigin_Requested::total            0                       # Table walker requests started/completed, data/inst
system.cpu0.dstage2_mmu.stage2_tlb.walker.walkRequestOrigin_Completed::Data            0                       # Table walker requests started/completed, data/inst
system.cpu0.dstage2_mmu.stage2_tlb.walker.walkRequestOrigin_Completed::Inst            0                       # Table walker requests started/completed, data/inst
system.cpu0.dstage2_mmu.stage2_tlb.walker.walkRequestOrigin_Completed::total            0                       # Table walker requests started/completed, data/inst
system.cpu0.dstage2_mmu.stage2_tlb.walker.walkRequestOrigin::total            0                       # Table walker requests started/completed, data/inst
system.cpu0.dstage2_mmu.stage2_tlb.inst_hits            0                       # ITB inst hits
system.cpu0.dstage2_mmu.stage2_tlb.inst_misses            0                       # ITB inst misses
system.cpu0.dstage2_mmu.stage2_tlb.read_hits            0                       # DTB read hits
system.cpu0.dstage2_mmu.stage2_tlb.read_misses            0                       # DTB read misses
system.cpu0.dstage2_mmu.stage2_tlb.write_hits            0                       # DTB write hits
system.cpu0.dstage2_mmu.stage2_tlb.write_misses            0                       # DTB write misses
system.cpu0.dstage2_mmu.stage2_tlb.flush_tlb            0                       # Number of times complete TLB was flushed
system.cpu0.dstage2_mmu.stage2_tlb.flush_tlb_mva            0                       # Number of times TLB was flushed by MVA
system.cpu0.dstage2_mmu.stage2_tlb.flush_tlb_mva_asid            0                       # Number of times TLB was flushed by MVA & ASID
system.cpu0.dstage2_mmu.stage2_tlb.flush_tlb_asid            0                       # Number of times TLB was flushed by ASID
system.cpu0.dstage2_mmu.stage2_tlb.flush_entries            0                       # Number of entries that have been flushed from TLB
system.cpu0.dstage2_mmu.stage2_tlb.align_faults            0                       # Number of TLB faults due to alignment restrictions
system.cpu0.dstage2_mmu.stage2_tlb.prefetch_faults            0                       # Number of TLB faults due to prefetch
system.cpu0.dstage2_mmu.stage2_tlb.domain_faults            0                       # Number of TLB faults due to domain restrictions
system.cpu0.dstage2_mmu.stage2_tlb.perms_faults            0                       # Number of TLB faults due to permissions restrictions
system.cpu0.dstage2_mmu.stage2_tlb.read_accesses            0                       # DTB read accesses
system.cpu0.dstage2_mmu.stage2_tlb.write_accesses            0                       # DTB write accesses
system.cpu0.dstage2_mmu.stage2_tlb.inst_accesses            0                       # ITB inst accesses
system.cpu0.dstage2_mmu.stage2_tlb.hits             0                       # DTB hits
system.cpu0.dstage2_mmu.stage2_tlb.misses            0                       # DTB misses
system.cpu0.dstage2_mmu.stage2_tlb.accesses            0                       # DTB accesses
system.cpu0.dtb.walker.walks                        0                       # Table walker walks requested
system.cpu0.dtb.walker.walkRequestOrigin_Requested::Data            0                       # Table walker requests started/completed, data/inst
system.cpu0.dtb.walker.walkRequestOrigin_Requested::Inst            0                       # Table walker requests started/completed, data/inst
system.cpu0.dtb.walker.walkRequestOrigin_Requested::total            0                       # Table walker requests started/completed, data/inst
system.cpu0.dtb.walker.walkRequestOrigin_Completed::Data            0                       # Table walker requests started/completed, data/inst
system.cpu0.dtb.walker.walkRequestOrigin_Completed::Inst            0                       # Table walker requests started/completed, data/inst
system.cpu0.dtb.walker.walkRequestOrigin_Completed::total            0                       # Table walker requests started/completed, data/inst
system.cpu0.dtb.walker.walkRequestOrigin::total            0                       # Table walker requests started/completed, data/inst
system.cpu0.dtb.inst_hits                           0                       # ITB inst hits
system.cpu0.dtb.inst_misses                         0                       # ITB inst misses
system.cpu0.dtb.read_hits                           0                       # DTB read hits
system.cpu0.dtb.read_misses                         0                       # DTB read misses
system.cpu0.dtb.write_hits                          0                       # DTB write hits
system.cpu0.dtb.write_misses                        0                       # DTB write misses
system.cpu0.dtb.flush_tlb                           0                       # Number of times complete TLB was flushed
system.cpu0.dtb.flush_tlb_mva                       0                       # Number of times TLB was flushed by MVA
system.cpu0.dtb.flush_tlb_mva_asid                  0                       # Number of times TLB was flushed by MVA & ASID
system.cpu0.dtb.flush_tlb_asid                      0                       # Number of times TLB was flushed by ASID
system.cpu0.dtb.flush_entries                       0                       # Number of entries that have been flushed from TLB
system.cpu0.dtb.align_faults                        0                       # Number of TLB faults due to alignment restrictions
system.cpu0.dtb.prefetch_faults                     0                       # Number of TLB faults due to prefetch
system.cpu0.dtb.domain_faults                       0                       # Number of TLB faults due to domain restrictions
system.cpu0.dtb.perms_faults                        0                       # Number of TLB faults due to permissions restrictions
system.cpu0.dtb.read_accesses                       0                       # DTB read accesses
system.cpu0.dtb.write_accesses                      0                       # DTB write accesses
system.cpu0.dtb.inst_accesses                       0                       # ITB inst accesses
system.cpu0.dtb.hits                                0                       # DTB hits
system.cpu0.dtb.misses                              0                       # DTB misses
system.cpu0.dtb.accesses                            0                       # DTB accesses
system.cpu0.istage2_mmu.stage2_tlb.walker.walks            0                       # Table walker walks requested
system.cpu0.istage2_mmu.stage2_tlb.walker.walkRequestOrigin_Requested::Data            0                       # Table walker requests started/completed, data/inst
system.cpu0.istage2_mmu.stage2_tlb.walker.walkRequestOrigin_Requested::Inst            0                       # Table walker requests started/completed, data/inst
system.cpu0.istage2_mmu.stage2_tlb.walker.walkRequestOrigin_Requested::total            0                       # Table walker requests started/completed, data/inst
system.cpu0.istage2_mmu.stage2_tlb.walker.walkRequestOrigin_Completed::Data            0                       # Table walker requests started/completed, data/inst
system.cpu0.istage2_mmu.stage2_tlb.walker.walkRequestOrigin_Completed::Inst            0                       # Table walker requests started/completed, data/inst
system.cpu0.istage2_mmu.stage2_tlb.walker.walkRequestOrigin_Completed::total            0                       # Table walker requests started/completed, data/inst
system.cpu0.istage2_mmu.stage2_tlb.walker.walkRequestOrigin::total            0                       # Table walker requests started/completed, data/inst
system.cpu0.istage2_mmu.stage2_tlb.inst_hits            0                       # ITB inst hits
system.cpu0.istage2_mmu.stage2_tlb.inst_misses            0                       # ITB inst misses
system.cpu0.istage2_mmu.stage2_tlb.read_hits            0                       # DTB read hits
system.cpu0.istage2_mmu.stage2_tlb.read_misses            0                       # DTB read misses
system.cpu0.istage2_mmu.stage2_tlb.write_hits            0                       # DTB write hits
system.cpu0.istage2_mmu.stage2_tlb.write_misses            0                       # DTB write misses
system.cpu0.istage2_mmu.stage2_tlb.flush_tlb            0                       # Number of times complete TLB was flushed
system.cpu0.istage2_mmu.stage2_tlb.flush_tlb_mva            0                       # Number of times TLB was flushed by MVA
system.cpu0.istage2_mmu.stage2_tlb.flush_tlb_mva_asid            0                       # Number of times TLB was flushed by MVA & ASID
system.cpu0.istage2_mmu.stage2_tlb.flush_tlb_asid            0                       # Number of times TLB was flushed by ASID
system.cpu0.istage2_mmu.stage2_tlb.flush_entries            0                       # Number of entries that have been flushed from TLB
system.cpu0.istage2_mmu.stage2_tlb.align_faults            0                       # Number of TLB faults due to alignment restrictions
system.cpu0.istage2_mmu.stage2_tlb.prefetch_faults            0                       # Number of TLB faults due to prefetch
system.cpu0.istage2_mmu.stage2_tlb.domain_faults            0                       # Number of TLB faults due to domain restrictions
system.cpu0.istage2_mmu.stage2_tlb.perms_faults            0                       # Number of TLB faults due to permissions restrictions
system.cpu0.istage2_mmu.stage2_tlb.read_accesses            0                       # DTB read accesses
system.cpu0.istage2_mmu.stage2_tlb.write_accesses            0                       # DTB write accesses
system.cpu0.istage2_mmu.stage2_tlb.inst_accesses            0                       # ITB inst accesses
system.cpu0.istage2_mmu.stage2_tlb.hits             0                       # DTB hits
system.cpu0.istage2_mmu.stage2_tlb.misses            0                       # DTB misses
system.cpu0.istage2_mmu.stage2_tlb.accesses            0                       # DTB accesses
system.cpu0.itb.walker.walks                        0                       # Table walker walks requested
system.cpu0.itb.walker.walkRequestOrigin_Requested::Data            0                       # Table walker requests started/completed, data/inst
system.cpu0.itb.walker.walkRequestOrigin_Requested::Inst            0                       # Table walker requests started/completed, data/inst
system.cpu0.itb.walker.walkRequestOrigin_Requested::total            0                       # Table walker requests started/completed, data/inst
system.cpu0.itb.walker.walkRequestOrigin_Completed::Data            0                       # Table walker requests started/completed, data/inst
system.cpu0.itb.walker.walkRequestOrigin_Completed::Inst            0                       # Table walker requests started/completed, data/inst
system.cpu0.itb.walker.walkRequestOrigin_Completed::total            0                       # Table walker requests started/completed, data/inst
system.cpu0.itb.walker.walkRequestOrigin::total            0                       # Table walker requests started/completed, data/inst
system.cpu0.itb.inst_hits                           0                       # ITB inst hits
system.cpu0.itb.inst_misses                         0                       # ITB inst misses
system.cpu0.itb.read_hits                           0                       # DTB read hits
system.cpu0.itb.read_misses                         0                       # DTB read misses
system.cpu0.itb.write_hits                          0                       # DTB write hits
system.cpu0.itb.write_misses                        0                       # DTB write misses
system.cpu0.itb.flush_tlb                           0                       # Number of times complete TLB was flushed
system.cpu0.itb.flush_tlb_mva                       0                       # Number of times TLB was flushed by MVA
system.cpu0.itb.flush_tlb_mva_asid                  0                       # Number of times TLB was flushed by MVA & ASID
system.cpu0.itb.flush_tlb_asid                      0                       # Number of times TLB was flushed by ASID
system.cpu0.itb.flush_entries                       0                       # Number of entries that have been flushed from TLB
system.cpu0.itb.align_faults                        0                       # Number of TLB faults due to alignment restrictions
system.cpu0.itb.prefetch_faults                     0                       # Number of TLB faults due to prefetch
system.cpu0.itb.domain_faults                       0                       # Number of TLB faults due to domain restrictions
system.cpu0.itb.perms_faults                        0                       # Number of TLB faults due to permissions restrictions
system.cpu0.itb.read_accesses                       0                       # DTB read accesses
system.cpu0.itb.write_accesses                      0                       # DTB write accesses
system.cpu0.itb.inst_accesses                       0                       # ITB inst accesses
system.cpu0.itb.hits                                0                       # DTB hits
system.cpu0.itb.misses                              0                       # DTB misses
system.cpu0.itb.accesses                            0                       # DTB accesses
system.cpu0.workload.num_syscalls              681232                       # Number of system calls
system.cpu0.numCycles                        72679710                       # number of cpu cycles simulated
system.cpu0.numWorkItemsStarted                     0                       # number of work items this cpu started
system.cpu0.numWorkItemsCompleted                   0                       # number of work items this cpu completed
system.cpu0.fetch.icacheStallCycles              8969                       # Number of cycles fetch is stalled on an Icache miss
system.cpu0.fetch.Insts                     181642163                       # Number of instructions fetch has processed
system.cpu0.fetch.Branches                   36328174                       # Number of branches that fetch encountered
system.cpu0.fetch.predictedBranches          36325751                       # Number of branches that fetch has predicted taken
system.cpu0.fetch.Cycles                     72661394                       # Number of cycles fetch has run and was not squashing or blocked
system.cpu0.fetch.SquashCycles                   1945                       # Number of cycles fetch has spent squashing
system.cpu0.fetch.PendingTrapStallCycles          168                       # Number of stall cycles due to pending traps
system.cpu0.fetch.CacheLines                     2555                       # Number of cache lines fetched
system.cpu0.fetch.IcacheSquashes                  285                       # Number of outstanding Icache misses that were squashed
system.cpu0.fetch.rateDist::samples          72671503                       # Number of instructions fetched each cycle (Total)
system.cpu0.fetch.rateDist::mean             2.499571                       # Number of instructions fetched each cycle (Total)
system.cpu0.fetch.rateDist::stdev            0.501124                       # Number of instructions fetched each cycle (Total)
system.cpu0.fetch.rateDist::underflows              0      0.00%      0.00% # Number of instructions fetched each cycle (Total)
system.cpu0.fetch.rateDist::0                   13369      0.02%      0.02% # Number of instructions fetched each cycle (Total)
system.cpu0.fetch.rateDist::1                     769      0.00%      0.02% # Number of instructions fetched each cycle (Total)
system.cpu0.fetch.rateDist::2                36325266     49.99%     50.01% # Number of instructions fetched each cycle (Total)
system.cpu0.fetch.rateDist::3                36332099     49.99%    100.00% # Number of instructions fetched each cycle (Total)
system.cpu0.fetch.rateDist::overflows               0      0.00%    100.00% # Number of instructions fetched each cycle (Total)
system.cpu0.fetch.rateDist::min_value               0                       # Number of instructions fetched each cycle (Total)
system.cpu0.fetch.rateDist::max_value               3                       # Number of instructions fetched each cycle (Total)
system.cpu0.fetch.rateDist::total            72671503                       # Number of instructions fetched each cycle (Total)
system.cpu0.fetch.branchRate                 0.499839                       # Number of branch fetches per cycle
system.cpu0.fetch.rate                       2.499214                       # Number of inst fetches per cycle
system.cpu0.decode.IdleCycles                    8656                       # Number of cycles decode is idle
system.cpu0.decode.BlockedCycles                 5536                       # Number of cycles decode is blocked
system.cpu0.decode.RunCycles                 72655667                       # Number of cycles decode is running
system.cpu0.decode.UnblockCycles                  873                       # Number of cycles decode is unblocking
system.cpu0.decode.SquashCycles                   771                       # Number of cycles decode is squashing
system.cpu0.decode.BranchResolved                 488                       # Number of times decode resolved a branch
system.cpu0.decode.BranchMispred                  217                       # Number of times decode detected a branch misprediction
system.cpu0.decode.DecodedInsts             181643955                       # Number of instructions handled by decode
system.cpu0.decode.SquashedInsts                  480                       # Number of squashed instructions handled by decode
system.cpu0.rename.SquashCycles                   771                       # Number of cycles rename is squashing
system.cpu0.rename.IdleCycles                    9493                       # Number of cycles rename is idle
system.cpu0.rename.BlockCycles                    752                       # Number of cycles rename is blocking
system.cpu0.rename.serializeStallCycles          2424                       # count of cycles rename stalled for serializing inst
system.cpu0.rename.RunCycles                 72655608                       # Number of cycles rename is running
system.cpu0.rename.UnblockCycles                 2455                       # Number of cycles rename is unblocking
system.cpu0.rename.RenamedInsts             181642501                       # Number of instructions processed by rename
system.cpu0.rename.IQFullEvents                     1                       # Number of times rename has blocked due to IQ full
system.cpu0.rename.SQFullEvents                  2331                       # Number of times rename has blocked due to SQ full
system.cpu0.rename.RenamedOperands          181644443                       # Number of destination operands rename has renamed
system.cpu0.rename.RenameLookups            835559917                       # Number of register rename lookups that rename has made
system.cpu0.rename.int_rename_lookups       181648346                       # Number of integer rename lookups
system.cpu0.rename.fp_rename_lookups               16                       # Number of floating rename lookups
system.cpu0.rename.CommittedMaps            181633357                       # Number of HB maps that are committed
system.cpu0.rename.UndoneMaps                   11086                       # Number of HB maps that are undone due to squashing
system.cpu0.rename.serializingInsts                60                       # count of serializing insts renamed
system.cpu0.rename.tempSerializingInsts            59                       # count of temporary serializing insts renamed
system.cpu0.rename.skidInsts                     1171                       # count of insts added to the skid buffer
system.cpu0.memDep0.insertedLoads            72651392                       # Number of loads inserted to the mem dependence unit.
system.cpu0.memDep0.insertedStores           36328288                       # Number of stores inserted to the mem dependence unit.
system.cpu0.memDep0.conflictingLoads         36323706                       # Number of conflicting loads.
system.cpu0.memDep0.conflictingStores        36323651                       # Number of conflicting stores.
system.cpu0.iq.iqInstsAdded                 181639876                       # Number of instructions added to the IQ (excludes non-spec)
system.cpu0.iq.iqNonSpecInstsAdded                 82                       # Number of non-speculative instructions added to the IQ
system.cpu0.iq.iqInstsIssued                181636877                       # Number of instructions issued
system.cpu0.iq.iqSquashedInstsIssued              613                       # Number of squashed instructions issued
system.cpu0.iq.iqSquashedInstsExamined           7537                       # Number of squashed instructions iterated over during squash; mainly for profiling
system.cpu0.iq.iqSquashedOperandsExamined        18585                       # Number of squashed operands that are examined and possibly removed from graph
system.cpu0.iq.iqSquashedNonSpecRemoved             5                       # Number of squashed non-spec instructions that were removed
system.cpu0.iq.issued_per_cycle::samples     72671503                       # Number of insts issued each cycle
system.cpu0.iq.issued_per_cycle::mean        2.499424                       # Number of insts issued each cycle
system.cpu0.iq.issued_per_cycle::stdev       0.706779                       # Number of insts issued each cycle
system.cpu0.iq.issued_per_cycle::underflows            0      0.00%      0.00% # Number of insts issued each cycle
system.cpu0.iq.issued_per_cycle::0              15089      0.02%      0.02% # Number of insts issued each cycle
system.cpu0.iq.issued_per_cycle::1            9021865     12.41%     12.44% # Number of insts issued each cycle
system.cpu0.iq.issued_per_cycle::2           18288635     25.17%     37.60% # Number of insts issued each cycle
system.cpu0.iq.issued_per_cycle::3           45345914     62.40%    100.00% # Number of insts issued each cycle
system.cpu0.iq.issued_per_cycle::overflows            0      0.00%    100.00% # Number of insts issued each cycle
system.cpu0.iq.issued_per_cycle::min_value            0                       # Number of insts issued each cycle
system.cpu0.iq.issued_per_cycle::max_value            3                       # Number of insts issued each cycle
system.cpu0.iq.issued_per_cycle::total       72671503                       # Number of insts issued each cycle
system.cpu0.iq.fu_full::No_OpClass                  0                       # attempts to use FU when none available
system.cpu0.iq.fu_full::IntAlu                      0                       # attempts to use FU when none available
system.cpu0.iq.fu_full::IntMult                     0                       # attempts to use FU when none available
system.cpu0.iq.fu_full::IntDiv                      0                       # attempts to use FU when none available
system.cpu0.iq.fu_full::FloatAdd                    0                       # attempts to use FU when none available
system.cpu0.iq.fu_full::FloatCmp                    0                       # attempts to use FU when none available
system.cpu0.iq.fu_full::FloatCvt                    0                       # attempts to use FU when none available
system.cpu0.iq.fu_full::FloatMult                   0                       # attempts to use FU when none available
system.cpu0.iq.fu_full::FloatDiv                    0                       # attempts to use FU when none available
system.cpu0.iq.fu_full::FloatSqrt                   0                       # attempts to use FU when none available
system.cpu0.iq.fu_full::SimdAdd                     0                       # attempts to use FU when none available
system.cpu0.iq.fu_full::SimdAddAcc                  0                       # attempts to use FU when none available
system.cpu0.iq.fu_full::SimdAlu                     0                       # attempts to use FU when none available
system.cpu0.iq.fu_full::SimdCmp                     0                       # attempts to use FU when none available
system.cpu0.iq.fu_full::SimdCvt                     0                       # attempts to use FU when none available
system.cpu0.iq.fu_full::SimdMisc                    0                       # attempts to use FU when none available
system.cpu0.iq.fu_full::SimdMult                    0                       # attempts to use FU when none available
system.cpu0.iq.fu_full::SimdMultAcc                 0                       # attempts to use FU when none available
system.cpu0.iq.fu_full::SimdShift                   0                       # attempts to use FU when none available
system.cpu0.iq.fu_full::SimdShiftAcc                0                       # attempts to use FU when none available
system.cpu0.iq.fu_full::SimdSqrt                    0                       # attempts to use FU when none available
system.cpu0.iq.fu_full::SimdFloatAdd                0                       # attempts to use FU when none available
system.cpu0.iq.fu_full::SimdFloatAlu                0                       # attempts to use FU when none available
system.cpu0.iq.fu_full::SimdFloatCmp                0                       # attempts to use FU when none available
system.cpu0.iq.fu_full::SimdFloatCvt                0                       # attempts to use FU when none available
system.cpu0.iq.fu_full::SimdFloatDiv                0                       # attempts to use FU when none available
system.cpu0.iq.fu_full::SimdFloatMisc               0                       # attempts to use FU when none available
system.cpu0.iq.fu_full::SimdFloatMult               0                       # attempts to use FU when none available
system.cpu0.iq.fu_full::SimdFloatMultAcc            0                       # attempts to use FU when none available
system.cpu0.iq.fu_full::SimdFloatSqrt               0                       # attempts to use FU when none available
system.cpu0.iq.fu_full::MemRead                     0                       # attempts to use FU when none available
system.cpu0.iq.fu_full::MemWrite                    0                       # attempts to use FU when none available
system.cpu0.iq.fu_full::IprAccess                   0                       # attempts to use FU when none available
system.cpu0.iq.fu_full::InstPrefetch                0                       # attempts to use FU when none available
system.cpu0.iq.FU_type_0::No_OpClass                0      0.00%      0.00% # Type of FU issued
system.cpu0.iq.FU_type_0::IntAlu             72658209     40.00%     40.00% # Type of FU issued
system.cpu0.iq.FU_type_0::IntMult                   6      0.00%     40.00% # Type of FU issued
system.cpu0.iq.FU_type_0::IntDiv                    0      0.00%     40.00% # Type of FU issued
system.cpu0.iq.FU_type_0::FloatAdd                  0      0.00%     40.00% # Type of FU issued
system.cpu0.iq.FU_type_0::FloatCmp                  0      0.00%     40.00% # Type of FU issued
system.cpu0.iq.FU_type_0::FloatCvt                  0      0.00%     40.00% # Type of FU issued
system.cpu0.iq.FU_type_0::FloatMult                 0      0.00%     40.00% # Type of FU issued
system.cpu0.iq.FU_type_0::FloatDiv                  0      0.00%     40.00% # Type of FU issued
system.cpu0.iq.FU_type_0::FloatSqrt                 0      0.00%     40.00% # Type of FU issued
system.cpu0.iq.FU_type_0::SimdAdd                   0      0.00%     40.00% # Type of FU issued
system.cpu0.iq.FU_type_0::SimdAddAcc                0      0.00%     40.00% # Type of FU issued
system.cpu0.iq.FU_type_0::SimdAlu                   0      0.00%     40.00% # Type of FU issued
system.cpu0.iq.FU_type_0::SimdCmp                   0      0.00%     40.00% # Type of FU issued
system.cpu0.iq.FU_type_0::SimdCvt                   0      0.00%     40.00% # Type of FU issued
system.cpu0.iq.FU_type_0::SimdMisc                  0      0.00%     40.00% # Type of FU issued
system.cpu0.iq.FU_type_0::SimdMult                  0      0.00%     40.00% # Type of FU issued
system.cpu0.iq.FU_type_0::SimdMultAcc               0      0.00%     40.00% # Type of FU issued
system.cpu0.iq.FU_type_0::SimdShift                 0      0.00%     40.00% # Type of FU issued
system.cpu0.iq.FU_type_0::SimdShiftAcc              0      0.00%     40.00% # Type of FU issued
system.cpu0.iq.FU_type_0::SimdSqrt                  0      0.00%     40.00% # Type of FU issued
system.cpu0.iq.FU_type_0::SimdFloatAdd              0      0.00%     40.00% # Type of FU issued
system.cpu0.iq.FU_type_0::SimdFloatAlu              0      0.00%     40.00% # Type of FU issued
system.cpu0.iq.FU_type_0::SimdFloatCmp              0      0.00%     40.00% # Type of FU issued
system.cpu0.iq.FU_type_0::SimdFloatCvt              0      0.00%     40.00% # Type of FU issued
system.cpu0.iq.FU_type_0::SimdFloatDiv              0      0.00%     40.00% # Type of FU issued
system.cpu0.iq.FU_type_0::SimdFloatMisc             3      0.00%     40.00% # Type of FU issued
system.cpu0.iq.FU_type_0::SimdFloatMult             0      0.00%     40.00% # Type of FU issued
system.cpu0.iq.FU_type_0::SimdFloatMultAcc            0      0.00%     40.00% # Type of FU issued
system.cpu0.iq.FU_type_0::SimdFloatSqrt             0      0.00%     40.00% # Type of FU issued
system.cpu0.iq.FU_type_0::MemRead            72650789     40.00%     80.00% # Type of FU issued
system.cpu0.iq.FU_type_0::MemWrite           36327870     20.00%    100.00% # Type of FU issued
system.cpu0.iq.FU_type_0::IprAccess                 0      0.00%    100.00% # Type of FU issued
system.cpu0.iq.FU_type_0::InstPrefetch              0      0.00%    100.00% # Type of FU issued
system.cpu0.iq.FU_type_0::total             181636877                       # Type of FU issued
system.cpu0.iq.rate                          2.499141                       # Inst issue rate
system.cpu0.iq.fu_busy_cnt                          0                       # FU busy when requested
system.cpu0.iq.fu_busy_rate                         0                       # FU busy rate (busy events/executed inst)
system.cpu0.iq.int_inst_queue_reads         435945838                       # Number of integer instruction queue reads
system.cpu0.iq.int_inst_queue_writes        181647636                       # Number of integer instruction queue writes
system.cpu0.iq.int_inst_queue_wakeup_accesses    181635520                       # Number of integer instruction queue wakeup accesses
system.cpu0.iq.fp_inst_queue_reads                 32                       # Number of floating instruction queue reads
system.cpu0.iq.fp_inst_queue_writes                16                       # Number of floating instruction queue writes
system.cpu0.iq.fp_inst_queue_wakeup_accesses           16                       # Number of floating instruction queue wakeup accesses
system.cpu0.iq.int_alu_accesses             181636861                       # Number of integer alu accesses
system.cpu0.iq.fp_alu_accesses                     16                       # Number of floating point alu accesses
system.cpu0.iew.lsq.thread0.forwLoads        36324005                       # Number of loads that had data forwarded from stores
system.cpu0.iew.lsq.thread0.invAddrLoads            0                       # Number of loads ignored due to an invalid address
system.cpu0.iew.lsq.thread0.squashedLoads         2128                       # Number of loads squashed
system.cpu0.iew.lsq.thread0.ignoredResponses            1                       # Number of memory responses ignored because the instruction is squashed
system.cpu0.iew.lsq.thread0.memOrderViolation          158                       # Number of memory ordering violations
system.cpu0.iew.lsq.thread0.squashedStores          845                       # Number of stores squashed
system.cpu0.iew.lsq.thread0.invAddrSwpfs            0                       # Number of software prefetches ignored due to an invalid address
system.cpu0.iew.lsq.thread0.blockedLoads            0                       # Number of blocked loads due to partial load-store forwarding
system.cpu0.iew.lsq.thread0.rescheduledLoads            8                       # Number of loads that were rescheduled
system.cpu0.iew.lsq.thread0.cacheBlocked            0                       # Number of times an access to memory failed due to the cache being blocked
system.cpu0.iew.iewIdleCycles                       0                       # Number of cycles IEW is idle
system.cpu0.iew.iewSquashCycles                   771                       # Number of cycles IEW is squashing
system.cpu0.iew.iewBlockCycles                    623                       # Number of cycles IEW is blocking
system.cpu0.iew.iewUnblockCycles                  131                       # Number of cycles IEW is unblocking
system.cpu0.iew.iewDispatchedInsts          181639980                       # Number of instructions dispatched to IQ
system.cpu0.iew.iewDispSquashedInsts              402                       # Number of squashed instructions skipped by dispatch
system.cpu0.iew.iewDispLoadInsts             72651392                       # Number of dispatched load instructions
system.cpu0.iew.iewDispStoreInsts            36328288                       # Number of dispatched store instructions
system.cpu0.iew.iewDispNonSpecInsts                56                       # Number of dispatched non-speculative instructions
system.cpu0.iew.iewIQFullEvents                     3                       # Number of times the IQ has become full, causing a stall
system.cpu0.iew.iewLSQFullEvents                    4                       # Number of times the LSQ has become full, causing a stall
system.cpu0.iew.memOrderViolationEvents           158                       # Number of memory order violations
system.cpu0.iew.predictedTakenIncorrect            79                       # Number of branches that were predicted taken incorrectly
system.cpu0.iew.predictedNotTakenIncorrect          541                       # Number of branches that were predicted not taken incorrectly
system.cpu0.iew.branchMispredicts                 620                       # Number of branch mispredicts detected at execute
system.cpu0.iew.iewExecutedInsts            181635993                       # Number of executed instructions
system.cpu0.iew.iewExecLoadInsts             72650555                       # Number of load instructions executed
system.cpu0.iew.iewExecSquashedInsts              884                       # Number of squashed instructions skipped in execute
system.cpu0.iew.exec_swp                            0                       # number of swp insts executed
system.cpu0.iew.exec_nop                           22                       # number of nop insts executed
system.cpu0.iew.exec_refs                   108978202                       # number of memory reference insts executed
system.cpu0.iew.exec_branches                36326132                       # Number of branches executed
system.cpu0.iew.exec_stores                  36327647                       # Number of stores executed
system.cpu0.iew.exec_rate                    2.499129                       # Inst execution rate
system.cpu0.iew.wb_sent                     181635655                       # cumulative count of insts sent to commit
system.cpu0.iew.wb_count                    181635536                       # cumulative count of insts written-back
system.cpu0.iew.wb_producers                108978918                       # num instructions producing a value
system.cpu0.iew.wb_consumers                108989724                       # num instructions consuming a value
system.cpu0.iew.wb_penalized                        0                       # number of instrctions required to write to 'other' IQ
system.cpu0.iew.wb_rate                      2.499123                       # insts written-back per cycle
system.cpu0.iew.wb_fanout                    0.999901                       # average fanout of values written-back
system.cpu0.iew.wb_penalized_rate                   0                       # fraction of instructions written-back that wrote to 'other' IQ
system.cpu0.commit.commitSquashedInsts           7558                       # The number of squashed insts skipped by commit
system.cpu0.commit.commitNonSpecStalls             77                       # The number of times commit has been forced to stall to communicate backwards
system.cpu0.commit.branchMispredicts              591                       # The number of times a branch was mispredicted
system.cpu0.commit.committed_per_cycle::samples     72670162                       # Number of insts commited each cycle
system.cpu0.commit.committed_per_cycle::mean     2.499409                       # Number of insts commited each cycle
system.cpu0.commit.committed_per_cycle::stdev     1.580855                       # Number of insts commited each cycle
system.cpu0.commit.committed_per_cycle::underflows            0      0.00%      0.00% # Number of insts commited each cycle
system.cpu0.commit.committed_per_cycle::0        16345      0.02%      0.02% # Number of insts commited each cycle
system.cpu0.commit.committed_per_cycle::1     36326439     49.99%     50.01% # Number of insts commited each cycle
system.cpu0.commit.committed_per_cycle::2         1394      0.00%     50.01% # Number of insts commited each cycle
system.cpu0.commit.committed_per_cycle::3      9020254     12.41%     62.43% # Number of insts commited each cycle
system.cpu0.commit.committed_per_cycle::4     18286922     25.16%     87.59% # Number of insts commited each cycle
system.cpu0.commit.committed_per_cycle::5      9018456     12.41%    100.00% # Number of insts commited each cycle
system.cpu0.commit.committed_per_cycle::6           92      0.00%    100.00% # Number of insts commited each cycle
system.cpu0.commit.committed_per_cycle::7          168      0.00%    100.00% # Number of insts commited each cycle
system.cpu0.commit.committed_per_cycle::8           92      0.00%    100.00% # Number of insts commited each cycle
system.cpu0.commit.committed_per_cycle::overflows            0      0.00%    100.00% # Number of insts commited each cycle
system.cpu0.commit.committed_per_cycle::min_value            0                       # Number of insts commited each cycle
system.cpu0.commit.committed_per_cycle::max_value            8                       # Number of insts commited each cycle
system.cpu0.commit.committed_per_cycle::total     72670162                       # Number of insts commited each cycle
system.cpu0.commit.committedInsts           181628928                       # Number of instructions committed
system.cpu0.commit.committedOps             181632421                       # Number of ops (including micro ops) committed
system.cpu0.commit.swp_count                        0                       # Number of s/w prefetches committed
system.cpu0.commit.refs                     108976707                       # Number of memory references committed
system.cpu0.commit.loads                     72649264                       # Number of loads committed
system.cpu0.commit.membars                         26                       # Number of memory barriers committed
system.cpu0.commit.branches                  36325572                       # Number of branches committed
system.cpu0.commit.fp_insts                        16                       # Number of committed floating point instructions.
system.cpu0.commit.int_insts                145307271                       # Number of committed integer instructions.
system.cpu0.commit.function_calls                 170                       # Number of function calls committed.
system.cpu0.commit.op_class_0::No_OpClass            0      0.00%      0.00% # Class of committed instruction
system.cpu0.commit.op_class_0::IntAlu        72655705     40.00%     40.00% # Class of committed instruction
system.cpu0.commit.op_class_0::IntMult              6      0.00%     40.00% # Class of committed instruction
system.cpu0.commit.op_class_0::IntDiv               0      0.00%     40.00% # Class of committed instruction
system.cpu0.commit.op_class_0::FloatAdd             0      0.00%     40.00% # Class of committed instruction
system.cpu0.commit.op_class_0::FloatCmp             0      0.00%     40.00% # Class of committed instruction
system.cpu0.commit.op_class_0::FloatCvt             0      0.00%     40.00% # Class of committed instruction
system.cpu0.commit.op_class_0::FloatMult            0      0.00%     40.00% # Class of committed instruction
system.cpu0.commit.op_class_0::FloatDiv             0      0.00%     40.00% # Class of committed instruction
system.cpu0.commit.op_class_0::FloatSqrt            0      0.00%     40.00% # Class of committed instruction
system.cpu0.commit.op_class_0::SimdAdd              0      0.00%     40.00% # Class of committed instruction
system.cpu0.commit.op_class_0::SimdAddAcc            0      0.00%     40.00% # Class of committed instruction
system.cpu0.commit.op_class_0::SimdAlu              0      0.00%     40.00% # Class of committed instruction
system.cpu0.commit.op_class_0::SimdCmp              0      0.00%     40.00% # Class of committed instruction
system.cpu0.commit.op_class_0::SimdCvt              0      0.00%     40.00% # Class of committed instruction
system.cpu0.commit.op_class_0::SimdMisc             0      0.00%     40.00% # Class of committed instruction
system.cpu0.commit.op_class_0::SimdMult             0      0.00%     40.00% # Class of committed instruction
system.cpu0.commit.op_class_0::SimdMultAcc            0      0.00%     40.00% # Class of committed instruction
system.cpu0.commit.op_class_0::SimdShift            0      0.00%     40.00% # Class of committed instruction
system.cpu0.commit.op_class_0::SimdShiftAcc            0      0.00%     40.00% # Class of committed instruction
system.cpu0.commit.op_class_0::SimdSqrt             0      0.00%     40.00% # Class of committed instruction
system.cpu0.commit.op_class_0::SimdFloatAdd            0      0.00%     40.00% # Class of committed instruction
system.cpu0.commit.op_class_0::SimdFloatAlu            0      0.00%     40.00% # Class of committed instruction
system.cpu0.commit.op_class_0::SimdFloatCmp            0      0.00%     40.00% # Class of committed instruction
system.cpu0.commit.op_class_0::SimdFloatCvt            0      0.00%     40.00% # Class of committed instruction
system.cpu0.commit.op_class_0::SimdFloatDiv            0      0.00%     40.00% # Class of committed instruction
system.cpu0.commit.op_class_0::SimdFloatMisc            3      0.00%     40.00% # Class of committed instruction
system.cpu0.commit.op_class_0::SimdFloatMult            0      0.00%     40.00% # Class of committed instruction
system.cpu0.commit.op_class_0::SimdFloatMultAcc            0      0.00%     40.00% # Class of committed instruction
system.cpu0.commit.op_class_0::SimdFloatSqrt            0      0.00%     40.00% # Class of committed instruction
system.cpu0.commit.op_class_0::MemRead       72649264     40.00%     80.00% # Class of committed instruction
system.cpu0.commit.op_class_0::MemWrite      36327443     20.00%    100.00% # Class of committed instruction
system.cpu0.commit.op_class_0::IprAccess            0      0.00%    100.00% # Class of committed instruction
system.cpu0.commit.op_class_0::InstPrefetch            0      0.00%    100.00% # Class of committed instruction
system.cpu0.commit.op_class_0::total        181632421                       # Class of committed instruction
system.cpu0.commit.bw_lim_events                   92                       # number cycles where commit BW limit reached
system.cpu0.rob.rob_reads                   254309736                       # The number of ROB reads
system.cpu0.rob.rob_writes                  363281304                       # The number of ROB writes
system.cpu0.timesIdled                            248                       # Number of times that the entire CPU went into an idle state and unscheduled itself
system.cpu0.idleCycles                           8207                       # Total number of cycles that the CPU has spent unscheduled due to idling
system.cpu0.committedInsts                  181628928                       # Number of Instructions Simulated
system.cpu0.committedOps                    181632421                       # Number of Ops (including micro ops) Simulated
system.cpu0.cpi                              0.400155                       # CPI: Cycles Per Instruction
system.cpu0.cpi_total                        0.400155                       # CPI: Total CPI of All Threads
system.cpu0.ipc                              2.499032                       # IPC: Instructions Per Cycle
system.cpu0.ipc_total                        2.499032                       # IPC: Total IPC of All Threads
system.cpu0.int_regfile_reads               181638760                       # number of integer regfile reads
system.cpu0.int_regfile_writes               72657131                       # number of integer regfile writes
system.cpu0.fp_regfile_reads                     1296                       # number of floating regfile reads
system.cpu0.cc_regfile_reads                762858222                       # number of cc regfile reads
system.cpu0.cc_regfile_writes               108979615                       # number of cc regfile writes
system.cpu0.misc_regfile_reads              111140675                       # number of misc regfile reads
system.cpu0.misc_regfile_writes                    54                       # number of misc regfile writes
system.cpu0.dcache.tags.replacements               40                       # number of replacements
system.cpu0.dcache.tags.tagsinuse          123.318953                       # Cycle average of tags in use
system.cpu0.dcache.tags.total_refs           72650717                       # Total number of references to valid blocks.
system.cpu0.dcache.tags.sampled_refs              187                       # Sample count of references to valid blocks.
system.cpu0.dcache.tags.avg_refs         388506.508021                       # Average number of references to valid blocks.
system.cpu0.dcache.tags.warmup_cycle                0                       # Cycle when the warmup percentage was hit.
system.cpu0.dcache.tags.occ_blocks::cpu0.data   123.318953                       # Average occupied blocks per requestor
system.cpu0.dcache.tags.occ_percent::cpu0.data     0.240857                       # Average percentage of cache occupancy
system.cpu0.dcache.tags.occ_percent::total     0.240857                       # Average percentage of cache occupancy
system.cpu0.dcache.tags.occ_task_id_blocks::1024          147                       # Occupied blocks per task id
system.cpu0.dcache.tags.age_task_id_blocks_1024::0           28                       # Occupied blocks per task id
system.cpu0.dcache.tags.age_task_id_blocks_1024::4          119                       # Occupied blocks per task id
system.cpu0.dcache.tags.occ_task_id_percent::1024     0.287109                       # Percentage of cache occupancy per task id
system.cpu0.dcache.tags.tag_accesses        145307825                       # Number of tag accesses
system.cpu0.dcache.tags.data_accesses       145307825                       # Number of data accesses
system.cpu0.dcache.ReadReq_hits::cpu0.data     36326100                       # number of ReadReq hits
system.cpu0.dcache.ReadReq_hits::total       36326100                       # number of ReadReq hits
system.cpu0.dcache.WriteReq_hits::cpu0.data     36324950                       # number of WriteReq hits
system.cpu0.dcache.WriteReq_hits::total      36324950                       # number of WriteReq hits
system.cpu0.dcache.LoadLockedReq_hits::cpu0.data           22                       # number of LoadLockedReq hits
system.cpu0.dcache.LoadLockedReq_hits::total           22                       # number of LoadLockedReq hits
system.cpu0.dcache.StoreCondReq_hits::cpu0.data           24                       # number of StoreCondReq hits
system.cpu0.dcache.StoreCondReq_hits::total           24                       # number of StoreCondReq hits
system.cpu0.dcache.demand_hits::cpu0.data     72651050                       # number of demand (read+write) hits
system.cpu0.dcache.demand_hits::total        72651050                       # number of demand (read+write) hits
system.cpu0.dcache.overall_hits::cpu0.data     72651050                       # number of overall hits
system.cpu0.dcache.overall_hits::total       72651050                       # number of overall hits
system.cpu0.dcache.ReadReq_misses::cpu0.data          226                       # number of ReadReq misses
system.cpu0.dcache.ReadReq_misses::total          226                       # number of ReadReq misses
system.cpu0.dcache.WriteReq_misses::cpu0.data         2417                       # number of WriteReq misses
system.cpu0.dcache.WriteReq_misses::total         2417                       # number of WriteReq misses
system.cpu0.dcache.LoadLockedReq_misses::cpu0.data            3                       # number of LoadLockedReq misses
system.cpu0.dcache.LoadLockedReq_misses::total            3                       # number of LoadLockedReq misses
system.cpu0.dcache.StoreCondReq_misses::cpu0.data            1                       # number of StoreCondReq misses
system.cpu0.dcache.StoreCondReq_misses::total            1                       # number of StoreCondReq misses
system.cpu0.dcache.demand_misses::cpu0.data         2643                       # number of demand (read+write) misses
system.cpu0.dcache.demand_misses::total          2643                       # number of demand (read+write) misses
system.cpu0.dcache.overall_misses::cpu0.data         2643                       # number of overall misses
system.cpu0.dcache.overall_misses::total         2643                       # number of overall misses
system.cpu0.dcache.ReadReq_miss_latency::cpu0.data      9824990                       # number of ReadReq miss cycles
system.cpu0.dcache.ReadReq_miss_latency::total      9824990                       # number of ReadReq miss cycles
system.cpu0.dcache.WriteReq_miss_latency::cpu0.data    118424500                       # number of WriteReq miss cycles
system.cpu0.dcache.WriteReq_miss_latency::total    118424500                       # number of WriteReq miss cycles
system.cpu0.dcache.LoadLockedReq_miss_latency::cpu0.data       133500                       # number of LoadLockedReq miss cycles
system.cpu0.dcache.LoadLockedReq_miss_latency::total       133500                       # number of LoadLockedReq miss cycles
system.cpu0.dcache.StoreCondReq_miss_latency::cpu0.data         7500                       # number of StoreCondReq miss cycles
system.cpu0.dcache.StoreCondReq_miss_latency::total         7500                       # number of StoreCondReq miss cycles
system.cpu0.dcache.demand_miss_latency::cpu0.data    128249490                       # number of demand (read+write) miss cycles
system.cpu0.dcache.demand_miss_latency::total    128249490                       # number of demand (read+write) miss cycles
system.cpu0.dcache.overall_miss_latency::cpu0.data    128249490                       # number of overall miss cycles
system.cpu0.dcache.overall_miss_latency::total    128249490                       # number of overall miss cycles
system.cpu0.dcache.ReadReq_accesses::cpu0.data     36326326                       # number of ReadReq accesses(hits+misses)
system.cpu0.dcache.ReadReq_accesses::total     36326326                       # number of ReadReq accesses(hits+misses)
system.cpu0.dcache.WriteReq_accesses::cpu0.data     36327367                       # number of WriteReq accesses(hits+misses)
system.cpu0.dcache.WriteReq_accesses::total     36327367                       # number of WriteReq accesses(hits+misses)
system.cpu0.dcache.LoadLockedReq_accesses::cpu0.data           25                       # number of LoadLockedReq accesses(hits+misses)
system.cpu0.dcache.LoadLockedReq_accesses::total           25                       # number of LoadLockedReq accesses(hits+misses)
system.cpu0.dcache.StoreCondReq_accesses::cpu0.data           25                       # number of StoreCondReq accesses(hits+misses)
system.cpu0.dcache.StoreCondReq_accesses::total           25                       # number of StoreCondReq accesses(hits+misses)
system.cpu0.dcache.demand_accesses::cpu0.data     72653693                       # number of demand (read+write) accesses
system.cpu0.dcache.demand_accesses::total     72653693                       # number of demand (read+write) accesses
system.cpu0.dcache.overall_accesses::cpu0.data     72653693                       # number of overall (read+write) accesses
system.cpu0.dcache.overall_accesses::total     72653693                       # number of overall (read+write) accesses
system.cpu0.dcache.ReadReq_miss_rate::cpu0.data     0.000006                       # miss rate for ReadReq accesses
system.cpu0.dcache.ReadReq_miss_rate::total     0.000006                       # miss rate for ReadReq accesses
system.cpu0.dcache.WriteReq_miss_rate::cpu0.data     0.000067                       # miss rate for WriteReq accesses
system.cpu0.dcache.WriteReq_miss_rate::total     0.000067                       # miss rate for WriteReq accesses
system.cpu0.dcache.LoadLockedReq_miss_rate::cpu0.data     0.120000                       # miss rate for LoadLockedReq accesses
system.cpu0.dcache.LoadLockedReq_miss_rate::total     0.120000                       # miss rate for LoadLockedReq accesses
system.cpu0.dcache.StoreCondReq_miss_rate::cpu0.data     0.040000                       # miss rate for StoreCondReq accesses
system.cpu0.dcache.StoreCondReq_miss_rate::total     0.040000                       # miss rate for StoreCondReq accesses
system.cpu0.dcache.demand_miss_rate::cpu0.data     0.000036                       # miss rate for demand accesses
system.cpu0.dcache.demand_miss_rate::total     0.000036                       # miss rate for demand accesses
system.cpu0.dcache.overall_miss_rate::cpu0.data     0.000036                       # miss rate for overall accesses
system.cpu0.dcache.overall_miss_rate::total     0.000036                       # miss rate for overall accesses
system.cpu0.dcache.ReadReq_avg_miss_latency::cpu0.data 43473.407080                       # average ReadReq miss latency
system.cpu0.dcache.ReadReq_avg_miss_latency::total 43473.407080                       # average ReadReq miss latency
system.cpu0.dcache.WriteReq_avg_miss_latency::cpu0.data 48996.483244                       # average WriteReq miss latency
system.cpu0.dcache.WriteReq_avg_miss_latency::total 48996.483244                       # average WriteReq miss latency
system.cpu0.dcache.LoadLockedReq_avg_miss_latency::cpu0.data        44500                       # average LoadLockedReq miss latency
system.cpu0.dcache.LoadLockedReq_avg_miss_latency::total        44500                       # average LoadLockedReq miss latency
system.cpu0.dcache.StoreCondReq_avg_miss_latency::cpu0.data         7500                       # average StoreCondReq miss latency
system.cpu0.dcache.StoreCondReq_avg_miss_latency::total         7500                       # average StoreCondReq miss latency
system.cpu0.dcache.demand_avg_miss_latency::cpu0.data 48524.211124                       # average overall miss latency
system.cpu0.dcache.demand_avg_miss_latency::total 48524.211124                       # average overall miss latency
system.cpu0.dcache.overall_avg_miss_latency::cpu0.data 48524.211124                       # average overall miss latency
system.cpu0.dcache.overall_avg_miss_latency::total 48524.211124                       # average overall miss latency
system.cpu0.dcache.blocked_cycles::no_mshrs            4                       # number of cycles access was blocked
system.cpu0.dcache.blocked_cycles::no_targets            0                       # number of cycles access was blocked
system.cpu0.dcache.blocked::no_mshrs                2                       # number of cycles access was blocked
system.cpu0.dcache.blocked::no_targets              0                       # number of cycles access was blocked
system.cpu0.dcache.avg_blocked_cycles::no_mshrs            2                       # average number of cycles each access was blocked
system.cpu0.dcache.avg_blocked_cycles::no_targets          nan                       # average number of cycles each access was blocked
system.cpu0.dcache.fast_writes                      0                       # number of fast writes performed
system.cpu0.dcache.cache_copies                     0                       # number of cache copies performed
system.cpu0.dcache.writebacks::writebacks           17                       # number of writebacks
system.cpu0.dcache.writebacks::total               17                       # number of writebacks
system.cpu0.dcache.ReadReq_mshr_hits::cpu0.data           80                       # number of ReadReq MSHR hits
system.cpu0.dcache.ReadReq_mshr_hits::total           80                       # number of ReadReq MSHR hits
system.cpu0.dcache.WriteReq_mshr_hits::cpu0.data         2220                       # number of WriteReq MSHR hits
system.cpu0.dcache.WriteReq_mshr_hits::total         2220                       # number of WriteReq MSHR hits
system.cpu0.dcache.LoadLockedReq_mshr_hits::cpu0.data            3                       # number of LoadLockedReq MSHR hits
system.cpu0.dcache.LoadLockedReq_mshr_hits::total            3                       # number of LoadLockedReq MSHR hits
system.cpu0.dcache.demand_mshr_hits::cpu0.data         2300                       # number of demand (read+write) MSHR hits
system.cpu0.dcache.demand_mshr_hits::total         2300                       # number of demand (read+write) MSHR hits
system.cpu0.dcache.overall_mshr_hits::cpu0.data         2300                       # number of overall MSHR hits
system.cpu0.dcache.overall_mshr_hits::total         2300                       # number of overall MSHR hits
system.cpu0.dcache.ReadReq_mshr_misses::cpu0.data          146                       # number of ReadReq MSHR misses
system.cpu0.dcache.ReadReq_mshr_misses::total          146                       # number of ReadReq MSHR misses
system.cpu0.dcache.WriteReq_mshr_misses::cpu0.data          197                       # number of WriteReq MSHR misses
system.cpu0.dcache.WriteReq_mshr_misses::total          197                       # number of WriteReq MSHR misses
system.cpu0.dcache.StoreCondReq_mshr_misses::cpu0.data            1                       # number of StoreCondReq MSHR misses
system.cpu0.dcache.StoreCondReq_mshr_misses::total            1                       # number of StoreCondReq MSHR misses
system.cpu0.dcache.demand_mshr_misses::cpu0.data          343                       # number of demand (read+write) MSHR misses
system.cpu0.dcache.demand_mshr_misses::total          343                       # number of demand (read+write) MSHR misses
system.cpu0.dcache.overall_mshr_misses::cpu0.data          343                       # number of overall MSHR misses
system.cpu0.dcache.overall_mshr_misses::total          343                       # number of overall MSHR misses
system.cpu0.dcache.ReadReq_mshr_miss_latency::cpu0.data      6143506                       # number of ReadReq MSHR miss cycles
system.cpu0.dcache.ReadReq_mshr_miss_latency::total      6143506                       # number of ReadReq MSHR miss cycles
system.cpu0.dcache.WriteReq_mshr_miss_latency::cpu0.data     10746500                       # number of WriteReq MSHR miss cycles
system.cpu0.dcache.WriteReq_mshr_miss_latency::total     10746500                       # number of WriteReq MSHR miss cycles
system.cpu0.dcache.StoreCondReq_mshr_miss_latency::cpu0.data         4500                       # number of StoreCondReq MSHR miss cycles
system.cpu0.dcache.StoreCondReq_mshr_miss_latency::total         4500                       # number of StoreCondReq MSHR miss cycles
system.cpu0.dcache.demand_mshr_miss_latency::cpu0.data     16890006                       # number of demand (read+write) MSHR miss cycles
system.cpu0.dcache.demand_mshr_miss_latency::total     16890006                       # number of demand (read+write) MSHR miss cycles
system.cpu0.dcache.overall_mshr_miss_latency::cpu0.data     16890006                       # number of overall MSHR miss cycles
system.cpu0.dcache.overall_mshr_miss_latency::total     16890006                       # number of overall MSHR miss cycles
system.cpu0.dcache.ReadReq_mshr_miss_rate::cpu0.data     0.000004                       # mshr miss rate for ReadReq accesses
system.cpu0.dcache.ReadReq_mshr_miss_rate::total     0.000004                       # mshr miss rate for ReadReq accesses
system.cpu0.dcache.WriteReq_mshr_miss_rate::cpu0.data     0.000005                       # mshr miss rate for WriteReq accesses
system.cpu0.dcache.WriteReq_mshr_miss_rate::total     0.000005                       # mshr miss rate for WriteReq accesses
system.cpu0.dcache.StoreCondReq_mshr_miss_rate::cpu0.data     0.040000                       # mshr miss rate for StoreCondReq accesses
system.cpu0.dcache.StoreCondReq_mshr_miss_rate::total     0.040000                       # mshr miss rate for StoreCondReq accesses
system.cpu0.dcache.demand_mshr_miss_rate::cpu0.data     0.000005                       # mshr miss rate for demand accesses
system.cpu0.dcache.demand_mshr_miss_rate::total     0.000005                       # mshr miss rate for demand accesses
system.cpu0.dcache.overall_mshr_miss_rate::cpu0.data     0.000005                       # mshr miss rate for overall accesses
system.cpu0.dcache.overall_mshr_miss_rate::total     0.000005                       # mshr miss rate for overall accesses
system.cpu0.dcache.ReadReq_avg_mshr_miss_latency::cpu0.data 42078.808219                       # average ReadReq mshr miss latency
system.cpu0.dcache.ReadReq_avg_mshr_miss_latency::total 42078.808219                       # average ReadReq mshr miss latency
system.cpu0.dcache.WriteReq_avg_mshr_miss_latency::cpu0.data 54550.761421                       # average WriteReq mshr miss latency
system.cpu0.dcache.WriteReq_avg_mshr_miss_latency::total 54550.761421                       # average WriteReq mshr miss latency
system.cpu0.dcache.StoreCondReq_avg_mshr_miss_latency::cpu0.data         4500                       # average StoreCondReq mshr miss latency
system.cpu0.dcache.StoreCondReq_avg_mshr_miss_latency::total         4500                       # average StoreCondReq mshr miss latency
system.cpu0.dcache.demand_avg_mshr_miss_latency::cpu0.data        49242                       # average overall mshr miss latency
system.cpu0.dcache.demand_avg_mshr_miss_latency::total        49242                       # average overall mshr miss latency
system.cpu0.dcache.overall_avg_mshr_miss_latency::cpu0.data        49242                       # average overall mshr miss latency
system.cpu0.dcache.overall_avg_mshr_miss_latency::total        49242                       # average overall mshr miss latency
system.cpu0.dcache.no_allocate_misses               0                       # Number of misses that were no-allocate
system.cpu0.icache.tags.replacements               69                       # number of replacements
system.cpu0.icache.tags.tagsinuse          288.955314                       # Cycle average of tags in use
system.cpu0.icache.tags.total_refs               2094                       # Total number of references to valid blocks.
[...]
system.l2.demand_avg_mshr_miss_latency::cpu8.data 40527.692308                       # average overall mshr miss latency
system.l2.demand_avg_mshr_miss_latency::total 40533.793154                       # average overall mshr miss latency
system.l2.overall_avg_mshr_miss_latency::cpu0.inst 41067.988669                       # average overall mshr miss latency
system.l2.overall_avg_mshr_miss_latency::cpu0.data 41268.292683                       # average overall mshr miss latency
system.l2.overall_avg_mshr_miss_latency::cpu1.inst 40843.750000                       # average overall mshr miss latency
system.l2.overall_avg_mshr_miss_latency::cpu1.data 40528.438130                       # average overall mshr miss latency
system.l2.overall_avg_mshr_miss_latency::cpu2.inst 41236.842105                       # average overall mshr miss latency
system.l2.overall_avg_mshr_miss_latency::cpu2.data 40532.824047                       # average overall mshr miss latency
system.l2.overall_avg_mshr_miss_latency::cpu3.inst 40618.181818                       # average overall mshr miss latency
system.l2.overall_avg_mshr_miss_latency::cpu3.data 40530.854048                       # average overall mshr miss latency
system.l2.overall_avg_mshr_miss_latency::cpu4.inst 40794.117647                       # average overall mshr miss latency
system.l2.overall_avg_mshr_miss_latency::cpu4.data 40531.757300                       # average overall mshr miss latency
system.l2.overall_avg_mshr_miss_latency::cpu5.inst 42516.666667                       # average overall mshr miss latency
system.l2.overall_avg_mshr_miss_latency::cpu5.data 40531.611549                       # average overall mshr miss latency
system.l2.overall_avg_mshr_miss_latency::cpu6.inst 40733.333333                       # average overall mshr miss latency
system.l2.overall_avg_mshr_miss_latency::cpu6.data 40527.304948                       # average overall mshr miss latency
system.l2.overall_avg_mshr_miss_latency::cpu7.inst 40805.555556                       # average overall mshr miss latency
system.l2.overall_avg_mshr_miss_latency::cpu7.data 40532.006499                       # average overall mshr miss latency
system.l2.overall_avg_mshr_miss_latency::cpu8.inst 40696.969697                       # average overall mshr miss latency
system.l2.overall_avg_mshr_miss_latency::cpu8.data 40527.692308                       # average overall mshr miss latency
system.l2.overall_avg_mshr_miss_latency::total 40533.793154                       # average overall mshr miss latency
system.l2.no_allocate_misses                        0                       # Number of misses that were no-allocate
system.membus.trans_dist::ReadReq              162023                       # Transaction distribution
system.membus.trans_dist::ReadResp             162023                       # Transaction distribution
system.membus.trans_dist::Writeback              1747                       # Transaction distribution
system.membus.trans_dist::UpgradeReq           911900                       # Transaction distribution
system.membus.trans_dist::SCUpgradeReq         920796                       # Transaction distribution
system.membus.trans_dist::UpgradeResp          741184                       # Transaction distribution
system.membus.trans_dist::SCUpgradeFailReq         1502                       # Transaction distribution
system.membus.trans_dist::ReadExReq             30353                       # Transaction distribution
system.membus.trans_dist::ReadExResp             3111                       # Transaction distribution
system.membus.pkt_count_system.l2.mem_side::system.physmem.port      2934639                       # Packet count per connected master and slave (bytes)
system.membus.pkt_count::total                2934639                       # Packet count per connected master and slave (bytes)
system.membus.pkt_size_system.l2.mem_side::system.physmem.port     10680384                       # Cumulative packet size per connected master and slave (bytes)
system.membus.pkt_size::total                10680384                       # Cumulative packet size per connected master and slave (bytes)
system.membus.snoops                          1120256                       # Total snoops (count)
system.membus.snoop_fanout::samples           2037615                       # Request fanout histogram
system.membus.snoop_fanout::mean                    0                       # Request fanout histogram
system.membus.snoop_fanout::stdev                   0                       # Request fanout histogram
system.membus.snoop_fanout::underflows              0      0.00%      0.00% # Request fanout histogram
system.membus.snoop_fanout::0                 2037615    100.00%    100.00% # Request fanout histogram
system.membus.snoop_fanout::1                       0      0.00%    100.00% # Request fanout histogram
system.membus.snoop_fanout::overflows               0      0.00%    100.00% # Request fanout histogram
system.membus.snoop_fanout::min_value               0                       # Request fanout histogram
system.membus.snoop_fanout::max_value               0                       # Request fanout histogram
system.membus.snoop_fanout::total             2037615                       # Request fanout histogram
system.membus.reqLayer0.occupancy          1292894252                       # Layer occupancy (ticks)
system.membus.reqLayer0.utilization               1.8                       # Layer utilization (%)
system.membus.respLayer1.occupancy         1926075670                       # Layer occupancy (ticks)
system.membus.respLayer1.utilization              2.7                       # Layer utilization (%)
system.tol2bus.trans_dist::ReadReq            9065413                       # Transaction distribution
system.tol2bus.trans_dist::ReadResp           9051785                       # Transaction distribution
system.tol2bus.trans_dist::ReadRespWithInvalidate        13628                       # Transaction distribution
system.tol2bus.trans_dist::Writeback            35655                       # Transaction distribution
system.tol2bus.trans_dist::UpgradeReq          911907                       # Transaction distribution
system.tol2bus.trans_dist::SCUpgradeReq        920800                       # Transaction distribution
system.tol2bus.trans_dist::UpgradeResp        1832707                       # Transaction distribution
system.tol2bus.trans_dist::SCUpgradeFailReq       261953                       # Transaction distribution
system.tol2bus.trans_dist::UpgradeFailResp       261953                       # Transaction distribution
system.tol2bus.trans_dist::ReadExReq            67889                       # Transaction distribution
system.tol2bus.trans_dist::ReadExResp           67889                       # Transaction distribution
system.tol2bus.pkt_count_system.cpu0.icache.mem_side::system.l2.cpu_side          776                       # Packet count per connected master and slave (bytes)
system.tol2bus.pkt_count_system.cpu0.dcache.mem_side::system.l2.cpu_side          691                       # Packet count per connected master and slave (bytes)
system.tol2bus.pkt_count_system.cpu1.icache.mem_side::system.l2.cpu_side         6586                       # Packet count per connected master and slave (bytes)
system.tol2bus.pkt_count_system.cpu1.dcache.mem_side::system.l2.cpu_side      1480282                       # Packet count per connected master and slave (bytes)
system.tol2bus.pkt_count_system.cpu2.icache.mem_side::system.l2.cpu_side         6058                       # Packet count per connected master and slave (bytes)
system.tol2bus.pkt_count_system.cpu2.dcache.mem_side::system.l2.cpu_side      1599345                       # Packet count per connected master and slave (bytes)
system.tol2bus.pkt_count_system.cpu3.icache.mem_side::system.l2.cpu_side         6314                       # Packet count per connected master and slave (bytes)
system.tol2bus.pkt_count_system.cpu3.dcache.mem_side::system.l2.cpu_side      1493090                       # Packet count per connected master and slave (bytes)
system.tol2bus.pkt_count_system.cpu4.icache.mem_side::system.l2.cpu_side         6642                       # Packet count per connected master and slave (bytes)
system.tol2bus.pkt_count_system.cpu4.dcache.mem_side::system.l2.cpu_side      1558667                       # Packet count per connected master and slave (bytes)
system.tol2bus.pkt_count_system.cpu5.icache.mem_side::system.l2.cpu_side         6168                       # Packet count per connected master and slave (bytes)
system.tol2bus.pkt_count_system.cpu5.dcache.mem_side::system.l2.cpu_side      1595809                       # Packet count per connected master and slave (bytes)
system.tol2bus.pkt_count_system.cpu6.icache.mem_side::system.l2.cpu_side         6084                       # Packet count per connected master and slave (bytes)
system.tol2bus.pkt_count_system.cpu6.dcache.mem_side::system.l2.cpu_side      1614729                       # Packet count per connected master and slave (bytes)
system.tol2bus.pkt_count_system.cpu7.icache.mem_side::system.l2.cpu_side         6182                       # Packet count per connected master and slave (bytes)
system.tol2bus.pkt_count_system.cpu7.dcache.mem_side::system.l2.cpu_side      1581918                       # Packet count per connected master and slave (bytes)
system.tol2bus.pkt_count_system.cpu8.icache.mem_side::system.l2.cpu_side         6102                       # Packet count per connected master and slave (bytes)
system.tol2bus.pkt_count_system.cpu8.dcache.mem_side::system.l2.cpu_side      1481199                       # Packet count per connected master and slave (bytes)
system.tol2bus.pkt_count::total              12456642                       # Packet count per connected master and slave (bytes)
system.tol2bus.pkt_size_system.cpu0.icache.mem_side::system.l2.cpu_side        24832                       # Cumulative packet size per connected master and slave (bytes)
system.tol2bus.pkt_size_system.cpu0.dcache.mem_side::system.l2.cpu_side        22080                       # Cumulative packet size per connected master and slave (bytes)
system.tol2bus.pkt_size_system.cpu1.icache.mem_side::system.l2.cpu_side       210752                       # Cumulative packet size per connected master and slave (bytes)
system.tol2bus.pkt_size_system.cpu1.dcache.mem_side::system.l2.cpu_side      3566848                       # Cumulative packet size per connected master and slave (bytes)
system.tol2bus.pkt_size_system.cpu2.icache.mem_side::system.l2.cpu_side       193856                       # Cumulative packet size per connected master and slave (bytes)
system.tol2bus.pkt_size_system.cpu2.dcache.mem_side::system.l2.cpu_side      3622912                       # Cumulative packet size per connected master and slave (bytes)
system.tol2bus.pkt_size_system.cpu3.icache.mem_side::system.l2.cpu_side       202048                       # Cumulative packet size per connected master and slave (bytes)
system.tol2bus.pkt_size_system.cpu3.dcache.mem_side::system.l2.cpu_side      3561856                       # Cumulative packet size per connected master and slave (bytes)
system.tol2bus.pkt_size_system.cpu4.icache.mem_side::system.l2.cpu_side       212544                       # Cumulative packet size per connected master and slave (bytes)
system.tol2bus.pkt_size_system.cpu4.dcache.mem_side::system.l2.cpu_side      3421504                       # Cumulative packet size per connected master and slave (bytes)
system.tol2bus.pkt_size_system.cpu5.icache.mem_side::system.l2.cpu_side       197376                       # Cumulative packet size per connected master and slave (bytes)
system.tol2bus.pkt_size_system.cpu5.dcache.mem_side::system.l2.cpu_side      3856960                       # Cumulative packet size per connected master and slave (bytes)
system.tol2bus.pkt_size_system.cpu6.icache.mem_side::system.l2.cpu_side       194688                       # Cumulative packet size per connected master and slave (bytes)
system.tol2bus.pkt_size_system.cpu6.dcache.mem_side::system.l2.cpu_side      4008640                       # Cumulative packet size per connected master and slave (bytes)
system.tol2bus.pkt_size_system.cpu7.icache.mem_side::system.l2.cpu_side       197824                       # Cumulative packet size per connected master and slave (bytes)
system.tol2bus.pkt_size_system.cpu7.dcache.mem_side::system.l2.cpu_side      3696064                       # Cumulative packet size per connected master and slave (bytes)
system.tol2bus.pkt_size_system.cpu8.icache.mem_side::system.l2.cpu_side       195264                       # Cumulative packet size per connected master and slave (bytes)
system.tol2bus.pkt_size_system.cpu8.dcache.mem_side::system.l2.cpu_side      3812992                       # Cumulative packet size per connected master and slave (bytes)
system.tol2bus.pkt_size::total               31199040                       # Cumulative packet size per connected master and slave (bytes)
system.tol2bus.snoops                        10034937                       # Total snoops (count)
system.tol2bus.snoop_fanout::samples         11263617                       # Request fanout histogram
system.tol2bus.snoop_fanout::mean                  17                       # Request fanout histogram
system.tol2bus.snoop_fanout::stdev                  0                       # Request fanout histogram
system.tol2bus.snoop_fanout::underflows             0      0.00%      0.00% # Request fanout histogram
system.tol2bus.snoop_fanout::0                      0      0.00%      0.00% # Request fanout histogram
system.tol2bus.snoop_fanout::1                      0      0.00%      0.00% # Request fanout histogram
system.tol2bus.snoop_fanout::2                      0      0.00%      0.00% # Request fanout histogram
system.tol2bus.snoop_fanout::3                      0      0.00%      0.00% # Request fanout histogram
system.tol2bus.snoop_fanout::4                      0      0.00%      0.00% # Request fanout histogram
system.tol2bus.snoop_fanout::5                      0      0.00%      0.00% # Request fanout histogram
system.tol2bus.snoop_fanout::6                      0      0.00%      0.00% # Request fanout histogram
system.tol2bus.snoop_fanout::7                      0      0.00%      0.00% # Request fanout histogram
system.tol2bus.snoop_fanout::8                      0      0.00%      0.00% # Request fanout histogram
system.tol2bus.snoop_fanout::9                      0      0.00%      0.00% # Request fanout histogram
system.tol2bus.snoop_fanout::10                     0      0.00%      0.00% # Request fanout histogram
system.tol2bus.snoop_fanout::11                     0      0.00%      0.00% # Request fanout histogram
system.tol2bus.snoop_fanout::12                     0      0.00%      0.00% # Request fanout histogram
system.tol2bus.snoop_fanout::13                     0      0.00%      0.00% # Request fanout histogram
system.tol2bus.snoop_fanout::14                     0      0.00%      0.00% # Request fanout histogram
system.tol2bus.snoop_fanout::15                     0      0.00%      0.00% # Request fanout histogram
system.tol2bus.snoop_fanout::16                     0      0.00%      0.00% # Request fanout histogram
system.tol2bus.snoop_fanout::17              11263617    100.00%    100.00% # Request fanout histogram
system.tol2bus.snoop_fanout::18                     0      0.00%    100.00% # Request fanout histogram
system.tol2bus.snoop_fanout::overflows              0      0.00%    100.00% # Request fanout histogram
system.tol2bus.snoop_fanout::min_value             17                       # Request fanout histogram
system.tol2bus.snoop_fanout::max_value             17                       # Request fanout histogram
system.tol2bus.snoop_fanout::total           11263617                       # Request fanout histogram
system.tol2bus.reqLayer0.occupancy         5771500622                       # Layer occupancy (ticks)
system.tol2bus.reqLayer0.utilization              7.9                       # Layer utilization (%)
system.tol2bus.respLayer0.occupancy            582998                       # Layer occupancy (ticks)
system.tol2bus.respLayer0.utilization             0.0                       # Layer utilization (%)
system.tol2bus.respLayer1.occupancy            513994                       # Layer occupancy (ticks)
system.tol2bus.respLayer1.utilization             0.0                       # Layer utilization (%)
system.tol2bus.respLayer4.occupancy           4969892                       # Layer occupancy (ticks)
system.tol2bus.respLayer4.utilization             0.0                       # Layer utilization (%)
system.tol2bus.respLayer5.occupancy        2019902747                       # Layer occupancy (ticks)
system.tol2bus.respLayer5.utilization             2.8                       # Layer utilization (%)
system.tol2bus.respLayer8.occupancy           4559952                       # Layer occupancy (ticks)
system.tol2bus.respLayer8.utilization             0.0                       # Layer utilization (%)
system.tol2bus.respLayer9.occupancy        2223537217                       # Layer occupancy (ticks)
system.tol2bus.respLayer9.utilization             3.1                       # Layer utilization (%)
system.tol2bus.respLayer12.occupancy          4765896                       # Layer occupancy (ticks)
system.tol2bus.respLayer12.utilization            0.0                       # Layer utilization (%)
system.tol2bus.respLayer13.occupancy       2046600589                       # Layer occupancy (ticks)
system.tol2bus.respLayer13.utilization            2.8                       # Layer utilization (%)
system.tol2bus.respLayer16.occupancy          4986985                       # Layer occupancy (ticks)
system.tol2bus.respLayer16.utilization            0.0                       # Layer utilization (%)
system.tol2bus.respLayer17.occupancy       2164437968                       # Layer occupancy (ticks)
system.tol2bus.respLayer17.utilization            3.0                       # Layer utilization (%)
system.tol2bus.respLayer20.occupancy          4628993                       # Layer occupancy (ticks)
system.tol2bus.respLayer20.utilization            0.0                       # Layer utilization (%)
system.tol2bus.respLayer21.occupancy       2187440571                       # Layer occupancy (ticks)
system.tol2bus.respLayer21.utilization            3.0                       # Layer utilization (%)
system.tol2bus.respLayer24.occupancy          4570479                       # Layer occupancy (ticks)
system.tol2bus.respLayer24.utilization            0.0                       # Layer utilization (%)
system.tol2bus.respLayer25.occupancy       2238578437                       # Layer occupancy (ticks)
system.tol2bus.respLayer25.utilization            3.1                       # Layer utilization (%)
system.tol2bus.respLayer28.occupancy          4660925                       # Layer occupancy (ticks)
system.tol2bus.respLayer28.utilization            0.0                       # Layer utilization (%)
system.tol2bus.respLayer29.occupancy       2194196803                       # Layer occupancy (ticks)
system.tol2bus.respLayer29.utilization            3.0                       # Layer utilization (%)
system.tol2bus.respLayer32.occupancy          4584963                       # Layer occupancy (ticks)
system.tol2bus.respLayer32.utilization            0.0                       # Layer utilization (%)
system.tol2bus.respLayer33.occupancy       2014344731                       # Layer occupancy (ticks)
system.tol2bus.respLayer33.utilization            2.8                       # Layer utilization (%)

---------- End Simulation Statistics   ----------
