
---------- Begin Simulation Statistics ----------
sim_seconds                                  0.040030                       # Number of seconds simulated
sim_ticks                                 40030379000                       # Number of ticks simulated
final_tick                                40030379000                       # Number of ticks from beginning of simulation (restored from checkpoints and never reset)
sim_freq                                 1000000000000                       # Frequency of simulated ticks
host_inst_rate                                 145928                       # Simulator instruction rate (inst/s)
host_op_rate                                   149684                       # Simulator op (including micro ops) rate (op/s)
host_tick_rate                               24924154                       # Simulator tick rate (ticks/s)
host_mem_usage                                 742628                       # Number of bytes of host memory used
host_seconds                                  1606.09                       # Real time elapsed on the host
sim_insts                                   234373212                       # Number of instructions simulated
sim_ops                                     240404872                       # Number of ops (including micro ops) simulated
system.voltage_domain.voltage                       1                       # Voltage in Volts
system.clk_domain.clock                          1000                       # Clock period in ticks
system.physmem.bytes_read::cpu0.inst            21056                       # Number of bytes read from this memory
system.physmem.bytes_read::cpu0.data            67200                       # Number of bytes read from this memory
system.physmem.bytes_read::cpu1.inst             4544                       # Number of bytes read from this memory
system.physmem.bytes_read::cpu1.data           684992                       # Number of bytes read from this memory
system.physmem.bytes_read::cpu2.inst             4800                       # Number of bytes read from this memory
system.physmem.bytes_read::cpu2.data           727488                       # Number of bytes read from this memory
system.physmem.bytes_read::cpu3.inst             1344                       # Number of bytes read from this memory
system.physmem.bytes_read::cpu3.data           690944                       # Number of bytes read from this memory
system.physmem.bytes_read::cpu4.inst             6976                       # Number of bytes read from this memory
system.physmem.bytes_read::cpu4.data           688896                       # Number of bytes read from this memory
system.physmem.bytes_read::cpu5.inst             3264                       # Number of bytes read from this memory
system.physmem.bytes_read::cpu5.data           584128                       # Number of bytes read from this memory
system.physmem.bytes_read::cpu6.inst             1344                       # Number of bytes read from this memory
system.physmem.bytes_read::cpu6.data           634496                       # Number of bytes read from this memory
system.physmem.bytes_read::cpu7.inst             1728                       # Number of bytes read from this memory
system.physmem.bytes_read::cpu7.data           576960                       # Number of bytes read from this memory
system.physmem.bytes_read::cpu8.inst             6464                       # Number of bytes read from this memory
system.physmem.bytes_read::cpu8.data           599168                       # Number of bytes read from this memory
system.physmem.bytes_read::total              5305792                       # Number of bytes read from this memory
system.physmem.bytes_inst_read::cpu0.inst        21056                       # Number of instructions bytes read from this memory
system.physmem.bytes_inst_read::cpu1.inst         4544                       # Number of instructions bytes read from this memory
system.physmem.bytes_inst_read::cpu2.inst         4800                       # Number of instructions bytes read from this memory
system.physmem.bytes_inst_read::cpu3.inst         1344                       # Number of instructions bytes read from this memory
system.physmem.bytes_inst_read::cpu4.inst         6976                       # Number of instructions bytes read from this memory
system.physmem.bytes_inst_read::cpu5.inst         3264                       # Number of instructions bytes read from this memory
system.physmem.bytes_inst_read::cpu6.inst         1344                       # Number of instructions bytes read from this memory
system.physmem.bytes_inst_read::cpu7.inst         1728                       # Number of instructions bytes read from this memory
system.physmem.bytes_inst_read::cpu8.inst         6464                       # Number of instructions bytes read from this memory
system.physmem.bytes_inst_read::total           51520                       # Number of instructions bytes read from this memory
system.physmem.bytes_written::writebacks       581696                       # Number of bytes written to this memory
system.physmem.bytes_written::total            581696                       # Number of bytes written to this memory
system.physmem.num_reads::cpu0.inst               329                       # Number of read requests responded to by this memory
system.physmem.num_reads::cpu0.data              1050                       # Number of read requests responded to by this memory
system.physmem.num_reads::cpu1.inst                71                       # Number of read requests responded to by this memory
system.physmem.num_reads::cpu1.data             10703                       # Number of read requests responded to by this memory
system.physmem.num_reads::cpu2.inst                75                       # Number of read requests responded to by this memory
system.physmem.num_reads::cpu2.data             11367                       # Number of read requests responded to by this memory
system.physmem.num_reads::cpu3.inst                21                       # Number of read requests responded to by this memory
system.physmem.num_reads::cpu3.data             10796                       # Number of read requests responded to by this memory
system.physmem.num_reads::cpu4.inst               109                       # Number of read requests responded to by this memory
system.physmem.num_reads::cpu4.data             10764                       # Number of read requests responded to by this memory
system.physmem.num_reads::cpu5.inst                51                       # Number of read requests responded to by this memory
system.physmem.num_reads::cpu5.data              9127                       # Number of read requests responded to by this memory
system.physmem.num_reads::cpu6.inst                21                       # Number of read requests responded to by this memory
system.physmem.num_reads::cpu6.data              9914                       # Number of read requests responded to by this memory
system.physmem.num_reads::cpu7.inst                27                       # Number of read requests responded to by this memory
system.physmem.num_reads::cpu7.data              9015                       # Number of read requests responded to by this memory
system.physmem.num_reads::cpu8.inst               101                       # Number of read requests responded to by this memory
system.physmem.num_reads::cpu8.data              9362                       # Number of read requests responded to by this memory
system.physmem.num_reads::total                 82903                       # Number of read requests responded to by this memory
system.physmem.num_writes::writebacks            9089                       # Number of write requests responded to by this memory
system.physmem.num_writes::total                 9089                       # Number of write requests responded to by this memory
system.physmem.bw_read::cpu0.inst              526001                       # Total read bandwidth from this memory (bytes/s)
system.physmem.bw_read::cpu0.data             1678725                       # Total read bandwidth from this memory (bytes/s)
system.physmem.bw_read::cpu1.inst              113514                       # Total read bandwidth from this memory (bytes/s)
system.physmem.bw_read::cpu1.data            17111804                       # Total read bandwidth from this memory (bytes/s)
system.physmem.bw_read::cpu2.inst              119909                       # Total read bandwidth from this memory (bytes/s)
system.physmem.bw_read::cpu2.data            18173398                       # Total read bandwidth from this memory (bytes/s)
system.physmem.bw_read::cpu3.inst               33575                       # Total read bandwidth from this memory (bytes/s)
system.physmem.bw_read::cpu3.data            17260491                       # Total read bandwidth from this memory (bytes/s)
system.physmem.bw_read::cpu4.inst              174268                       # Total read bandwidth from this memory (bytes/s)
system.physmem.bw_read::cpu4.data            17209330                       # Total read bandwidth from this memory (bytes/s)
system.physmem.bw_read::cpu5.inst               81538                       # Total read bandwidth from this memory (bytes/s)
system.physmem.bw_read::cpu5.data            14592118                       # Total read bandwidth from this memory (bytes/s)
system.physmem.bw_read::cpu6.inst               33575                       # Total read bandwidth from this memory (bytes/s)
system.physmem.bw_read::cpu6.data            15850362                       # Total read bandwidth from this memory (bytes/s)
system.physmem.bw_read::cpu7.inst               43167                       # Total read bandwidth from this memory (bytes/s)
system.physmem.bw_read::cpu7.data            14413054                       # Total read bandwidth from this memory (bytes/s)
system.physmem.bw_read::cpu8.inst              161477                       # Total read bandwidth from this memory (bytes/s)
system.physmem.bw_read::cpu8.data            14967832                       # Total read bandwidth from this memory (bytes/s)
system.physmem.bw_read::total               132544136                       # Total read bandwidth from this memory (bytes/s)
system.physmem.bw_inst_read::cpu0.inst         526001                       # Instruction read bandwidth from this memory (bytes/s)
system.physmem.bw_inst_read::cpu1.inst         113514                       # Instruction read bandwidth from this memory (bytes/s)
system.physmem.bw_inst_read::cpu2.inst         119909                       # Instruction read bandwidth from this memory (bytes/s)
system.physmem.bw_inst_read::cpu3.inst          33575                       # Instruction read bandwidth from this memory (bytes/s)
system.physmem.bw_inst_read::cpu4.inst         174268                       # Instruction read bandwidth from this memory (bytes/s)
system.physmem.bw_inst_read::cpu5.inst          81538                       # Instruction read bandwidth from this memory (bytes/s)
system.physmem.bw_inst_read::cpu6.inst          33575                       # Instruction read bandwidth from this memory (bytes/s)
system.physmem.bw_inst_read::cpu7.inst          43167                       # Instruction read bandwidth from this memory (bytes/s)
system.physmem.bw_inst_read::cpu8.inst         161477                       # Instruction read bandwidth from this memory (bytes/s)
system.physmem.bw_inst_read::total            1287023                       # Instruction read bandwidth from this memory (bytes/s)
system.physmem.bw_write::writebacks          14531364                       # Write bandwidth from this memory (bytes/s)
system.physmem.bw_write::total               14531364                       # Write bandwidth from this memory (bytes/s)
system.physmem.bw_total::writebacks          14531364                       # Total bandwidth to/from this memory (bytes/s)
system.physmem.bw_total::cpu0.inst             526001                       # Total bandwidth to/from this memory (bytes/s)
system.physmem.bw_total::cpu0.data            1678725                       # Total bandwidth to/from this memory (bytes/s)
system.physmem.bw_total::cpu1.inst             113514                       # Total bandwidth to/from this memory (bytes/s)
system.physmem.bw_total::cpu1.data           17111804                       # Total bandwidth to/from this memory (bytes/s)
system.physmem.bw_total::cpu2.inst             119909                       # Total bandwidth to/from this memory (bytes/s)
system.physmem.bw_total::cpu2.data           18173398                       # Total bandwidth to/from this memory (bytes/s)
system.physmem.bw_total::cpu3.inst              33575                       # Total bandwidth to/from this memory (bytes/s)
system.physmem.bw_total::cpu3.data           17260491                       # Total bandwidth to/from this memory (bytes/s)
system.physmem.bw_total::cpu4.inst             174268                       # Total bandwidth to/from this memory (bytes/s)
system.physmem.bw_total::cpu4.data           17209330                       # Total bandwidth to/from this memory (bytes/s)
system.physmem.bw_total::cpu5.inst              81538                       # Total bandwidth to/from this memory (bytes/s)
system.physmem.bw_total::cpu5.data           14592118                       # Total bandwidth to/from this memory (bytes/s)
system.physmem.bw_total::cpu6.inst              33575                       # Total bandwidth to/from this memory (bytes/s)
system.physmem.bw_total::cpu6.data           15850362                       # Total bandwidth to/from this memory (bytes/s)
system.physmem.bw_total::cpu7.inst              43167                       # Total bandwidth to/from this memory (bytes/s)
system.physmem.bw_total::cpu7.data           14413054                       # Total bandwidth to/from this memory (bytes/s)
system.physmem.bw_total::cpu8.inst             161477                       # Total bandwidth to/from this memory (bytes/s)
system.physmem.bw_total::cpu8.data           14967832                       # Total bandwidth to/from this memory (bytes/s)
system.physmem.bw_total::total              147075500                       # Total bandwidth to/from this memory (bytes/s)
system.cpu0.branchPred.lookups               20004119                       # Number of BP lookups
system.cpu0.branchPred.condPredicted         19998765                       # Number of conditional branches predicted
system.cpu0.branchPred.condIncorrect              754                       # Number of conditional branches incorrect
system.cpu0.branchPred.BTBLookups            19997544                       # Number of BTB lookups
system.cpu0.branchPred.BTBHits               19997070                       # Number of BTB hits
system.cpu0.branchPred.BTBCorrect                   0                       # Number of correct BTB predictions (this stat may not work properly.
system.cpu0.branchPred.BTBHitPct            99.997630                       # BTB Hit Percentage
system.cpu0.branchPred.usedRAS                   2503                       # Number of times the RAS was used to get a target.
system.cpu0.branchPred.RASInCorrect                59                       # Number of incorrect RAS predictions.
system.cpu0.dstage2_mmu.stage2_tlb.walker.walks            0                       # Table walker walks requested
system.cpu0.dstage2_mmu.stage2_tlb.walker.walkRequestOrigin_Requested::Data            0                       # Table walker requests started/completed, data/inst
system.cpu0.dstage2_mmu.stage2_tlb.walker.walkRequestOrigin_Requested::Inst            0                       # Table walker requests started/completed, data/inst
system.cpu0.dstage2_mmu.stage2_tlb.walker.walkRequestOrigin_Requested::total            0                       # Table walker requests started/completed, data/inst
system.cpu0.dstage2_mmu.stage2_tlb.walker.walkRequestOrigin_Completed::Data            0                       # Table walker requests started/completed, data/inst
system.cpu0.dstage2_mmu.stage2_tlb.walker.walkRequestOrigin_Completed::Inst            0                       # Table walker requests started/completed, data/inst
system.cpu0.dstage2_mmu.stage2_tlb.walker.walkRequestOrigin_Completed::total            0                       # Table walker requests started/completed, data/inst
system.cpu0.dstage2_mmu.stage2_tlb.walker.walkRequestOrigin::total            0                       # Table walker requests started/completed, data/inst
system.cpu0.dstage2_mmu.stage2_tlb.inst_hits            0                       # ITB inst hits
system.cpu0.dstage2_mmu.stage2_tlb.inst_misses            0                       # ITB inst misses
system.cpu0.dstage2_mmu.stage2_tlb.read_hits            0                       # DTB read hits
system.cpu0.dstage2_mmu.stage2_tlb.read_misses            0                       # DTB read misses
system.cpu0.dstage2_mmu.stage2_tlb.write_hits            0                       # DTB write hits
system.cpu0.dstage2_mmu.stage2_tlb.write_misses            0                       # DTB write misses
system.cpu0.dstage2_mmu.stage2_tlb.flush_tlb            0                       # Number of times complete TLB was flushed
system.cpu0.dstage2_mmu.stage2_tlb.flush_tlb_mva            0                       # Number of times TLB was flushed by MVA
system.cpu0.dstage2_mmu.stage2_tlb.flush_tlb_mva_asid            0                       # Number of times TLB was flushed by MVA & ASID
system.cpu0.dstage2_mmu.stage2_tlb.flush_tlb_asid            0                       # Number of times TLB was flushed by ASID
system.cpu0.dstage2_mmu.stage2_tlb.flush_entries            0                       # Number of entries that have been flushed from TLB
system.cpu0.dstage2_mmu.stage2_tlb.align_faults            0                       # Number of TLB faults due to alignment restrictions
system.cpu0.dstage2_mmu.stage2_tlb.prefetch_faults            0                       # Number of TLB faults due to prefetch
system.cpu0.dstage2_mmu.stage2_tlb.domain_faults            0                       # Number of TLB faults due to domain restrictions
system.cpu0.dstage2_mmu.stage2_tlb.perms_faults            0                       # Number of TLB faults due to permissions restrictions
system.cpu0.dstage2_mmu.stage2_tlb.read_accesses            0                       # DTB read accesses
system.cpu0.dstage2_mmu.stage2_tlb.write_accesses            0                       # DTB write accesses
system.cpu0.dstage2_mmu.stage2_tlb.inst_accesses            0                       # ITB inst accesses
system.cpu0.dstage2_mmu.stage2_tlb.hits             0                       # DTB hits
system.cpu0.dstage2_mmu.stage2_tlb.misses            0                       # DTB misses
system.cpu0.dstage2_mmu.stage2_tlb.accesses            0                       # DTB accesses
system.cpu0.dtb.walker.walks                        0                       # Table walker walks requested
system.cpu0.dtb.walker.walkRequestOrigin_Requested::Data            0                       # Table walker requests started/completed, data/inst
system.cpu0.dtb.walker.walkRequestOrigin_Requested::Inst            0                       # Table walker requests started/completed, data/inst
system.cpu0.dtb.walker.walkRequestOrigin_Requested::total            0                       # Table walker requests started/completed, data/inst
system.cpu0.dtb.walker.walkRequestOrigin_Completed::Data            0                       # Table walker requests started/completed, data/inst
system.cpu0.dtb.walker.walkRequestOrigin_Completed::Inst            0                       # Table walker requests started/completed, data/inst
system.cpu0.dtb.walker.walkRequestOrigin_Completed::total            0                       # Table walker requests started/completed, data/inst
system.cpu0.dtb.walker.walkRequestOrigin::total            0                       # Table walker requests started/completed, data/inst
system.cpu0.dtb.inst_hits                           0                       # ITB inst hits
system.cpu0.dtb.inst_misses                         0                       # ITB inst misses
system.cpu0.dtb.read_hits                           0                       # DTB read hits
system.cpu0.dtb.read_misses                         0                       # DTB read misses
system.cpu0.dtb.write_hits                          0                       # DTB write hits
system.cpu0.dtb.write_misses                        0                       # DTB write misses
system.cpu0.dtb.flush_tlb                           0                       # Number of times complete TLB was flushed
system.cpu0.dtb.flush_tlb_mva                       0                       # Number of times TLB was flushed by MVA
system.cpu0.dtb.flush_tlb_mva_asid                  0                       # Number of times TLB was flushed by MVA & ASID
system.cpu0.dtb.flush_tlb_asid                      0                       # Number of times TLB was flushed by ASID
system.cpu0.dtb.flush_entries                       0                       # Number of entries that have been flushed from TLB
system.cpu0.dtb.align_faults                        0                       # Number of TLB faults due to alignment restrictions
system.cpu0.dtb.prefetch_faults                     0                       # Number of TLB faults due to prefetch
system.cpu0.dtb.domain_faults                       0                       # Number of TLB faults due to domain restrictions
system.cpu0.dtb.perms_faults                        0                       # Number of TLB faults due to permissions restrictions
system.cpu0.dtb.read_accesses                       0                       # DTB read accesses
system.cpu0.dtb.write_accesses                      0                       # DTB write accesses
system.cpu0.dtb.inst_accesses                       0                       # ITB inst accesses
system.cpu0.dtb.hits                                0                       # DTB hits
system.cpu0.dtb.misses                              0                       # DTB misses
system.cpu0.dtb.accesses                            0                       # DTB accesses
system.cpu0.istage2_mmu.stage2_tlb.walker.walks            0                       # Table walker walks requested
system.cpu0.istage2_mmu.stage2_tlb.walker.walkRequestOrigin_Requested::Data            0                       # Table walker requests started/completed, data/inst
system.cpu0.istage2_mmu.stage2_tlb.walker.walkRequestOrigin_Requested::Inst            0                       # Table walker requests started/completed, data/inst
system.cpu0.istage2_mmu.stage2_tlb.walker.walkRequestOrigin_Requested::total            0                       # Table walker requests started/completed, data/inst
system.cpu0.istage2_mmu.stage2_tlb.walker.walkRequestOrigin_Completed::Data            0                       # Table walker requests started/completed, data/inst
system.cpu0.istage2_mmu.stage2_tlb.walker.walkRequestOrigin_Completed::Inst            0                       # Table walker requests started/completed, data/inst
system.cpu0.istage2_mmu.stage2_tlb.walker.walkRequestOrigin_Completed::total            0                       # Table walker requests started/completed, data/inst
system.cpu0.istage2_mmu.stage2_tlb.walker.walkRequestOrigin::total            0                       # Table walker requests started/completed, data/inst
system.cpu0.istage2_mmu.stage2_tlb.inst_hits            0                       # ITB inst hits
system.cpu0.istage2_mmu.stage2_tlb.inst_misses            0                       # ITB inst misses
system.cpu0.istage2_mmu.stage2_tlb.read_hits            0                       # DTB read hits
system.cpu0.istage2_mmu.stage2_tlb.read_misses            0                       # DTB read misses
system.cpu0.istage2_mmu.stage2_tlb.write_hits            0                       # DTB write hits
system.cpu0.istage2_mmu.stage2_tlb.write_misses            0                       # DTB write misses
system.cpu0.istage2_mmu.stage2_tlb.flush_tlb            0                       # Number of times complete TLB was flushed
system.cpu0.istage2_mmu.stage2_tlb.flush_tlb_mva            0                       # Number of times TLB was flushed by MVA
system.cpu0.istage2_mmu.stage2_tlb.flush_tlb_mva_asid            0                       # Number of times TLB was flushed by MVA & ASID
system.cpu0.istage2_mmu.stage2_tlb.flush_tlb_asid            0                       # Number of times TLB was flushed by ASID
system.cpu0.istage2_mmu.stage2_tlb.flush_entries            0                       # Number of entries that have been flushed from TLB
system.cpu0.istage2_mmu.stage2_tlb.align_faults            0                       # Number of TLB faults due to alignment restrictions
system.cpu0.istage2_mmu.stage2_tlb.prefetch_faults            0                       # Number of TLB faults due to prefetch
system.cpu0.istage2_mmu.stage2_tlb.domain_faults            0                       # Number of TLB faults due to domain restrictions
system.cpu0.istage2_mmu.stage2_tlb.perms_faults            0                       # Number of TLB faults due to permissions restrictions
system.cpu0.istage2_mmu.stage2_tlb.read_accesses            0                       # DTB read accesses
system.cpu0.istage2_mmu.stage2_tlb.write_accesses            0                       # DTB write accesses
system.cpu0.istage2_mmu.stage2_tlb.inst_accesses            0                       # ITB inst accesses
system.cpu0.istage2_mmu.stage2_tlb.hits             0                       # DTB hits
system.cpu0.istage2_mmu.stage2_tlb.misses            0                       # DTB misses
system.cpu0.istage2_mmu.stage2_tlb.accesses            0                       # DTB accesses
system.cpu0.itb.walker.walks                        0                       # Table walker walks requested
system.cpu0.itb.walker.walkRequestOrigin_Requested::Data            0                       # Table walker requests started/completed, data/inst
system.cpu0.itb.walker.walkRequestOrigin_Requested::Inst            0                       # Table walker requests started/completed, data/inst
system.cpu0.itb.walker.walkRequestOrigin_Requested::total            0                       # Table walker requests started/completed, data/inst
system.cpu0.itb.walker.walkRequestOrigin_Completed::Data            0                       # Table walker requests started/completed, data/inst
system.cpu0.itb.walker.walkRequestOrigin_Completed::Inst            0                       # Table walker requests started/completed, data/inst
system.cpu0.itb.walker.walkRequestOrigin_Completed::total            0                       # Table walker requests started/completed, data/inst
system.cpu0.itb.walker.walkRequestOrigin::total            0                       # Table walker requests started/completed, data/inst
system.cpu0.itb.inst_hits                           0                       # ITB inst hits
system.cpu0.itb.inst_misses                         0                       # ITB inst misses
system.cpu0.itb.read_hits                           0                       # DTB read hits
system.cpu0.itb.read_misses                         0                       # DTB read misses
system.cpu0.itb.write_hits                          0                       # DTB write hits
system.cpu0.itb.write_misses                        0                       # DTB write misses
system.cpu0.itb.flush_tlb                           0                       # Number of times complete TLB was flushed
system.cpu0.itb.flush_tlb_mva                       0                       # Number of times TLB was flushed by MVA
system.cpu0.itb.flush_tlb_mva_asid                  0                       # Number of times TLB was flushed by MVA & ASID
system.cpu0.itb.flush_tlb_asid                      0                       # Number of times TLB was flushed by ASID
system.cpu0.itb.flush_entries                       0                       # Number of entries that have been flushed from TLB
system.cpu0.itb.align_faults                        0                       # Number of TLB faults due to alignment restrictions
system.cpu0.itb.prefetch_faults                     0                       # Number of TLB faults due to prefetch
system.cpu0.itb.domain_faults                       0                       # Number of TLB faults due to domain restrictions
system.cpu0.itb.perms_faults                        0                       # Number of TLB faults due to permissions restrictions
system.cpu0.itb.read_accesses                       0                       # DTB read accesses
system.cpu0.itb.write_accesses                      0                       # DTB write accesses
system.cpu0.itb.inst_accesses                       0                       # ITB inst accesses
system.cpu0.itb.hits                                0                       # DTB hits
system.cpu0.itb.misses                              0                       # DTB misses
system.cpu0.itb.accesses                            0                       # DTB accesses
system.cpu0.workload.num_syscalls              383064                       # Number of system calls
system.cpu0.numCycles                        40030380                       # number of cpu cycles simulated
system.cpu0.numWorkItemsStarted                     0                       # number of work items this cpu started
system.cpu0.numWorkItemsCompleted                   0                       # number of work items this cpu completed
system.cpu0.fetch.icacheStallCycles             13282                       # Number of cycles fetch is stalled on an Icache miss
system.cpu0.fetch.Insts                     100011560                       # Number of instructions fetch has processed
system.cpu0.fetch.Branches                   20004119                       # Number of branches that fetch encountered
system.cpu0.fetch.predictedBranches          19999573                       # Number of branches that fetch has predicted taken
system.cpu0.fetch.Cycles                     40008820                       # Number of cycles fetch has run and was not squashing or blocked
system.cpu0.fetch.SquashCycles                   1734                       # Number of cycles fetch has spent squashing
system.cpu0.fetch.PendingTrapStallCycles          165                       # Number of stall cycles due to pending traps
system.cpu0.fetch.CacheLines                     7102                       # Number of cache lines fetched
system.cpu0.fetch.IcacheSquashes                  275                       # Number of outstanding Icache misses that were squashed
system.cpu0.fetch.rateDist::samples          40023134                       # Number of instructions fetched each cycle (Total)
system.cpu0.fetch.rateDist::mean             2.498976                       # Number of instructions fetched each cycle (Total)
system.cpu0.fetch.rateDist::stdev            0.502714                       # Number of instructions fetched each cycle (Total)
system.cpu0.fetch.rateDist::underflows              0      0.00%      0.00% # Number of instructions fetched each cycle (Total)
system.cpu0.fetch.rateDist::0                   17206      0.04%      0.04% # Number of instructions fetched each cycle (Total)
system.cpu0.fetch.rateDist::1                    2865      0.01%      0.05% # Number of instructions fetched each cycle (Total)
system.cpu0.fetch.rateDist::2                19995195     49.96%     50.01% # Number of instructions fetched each cycle (Total)
system.cpu0.fetch.rateDist::3                20007868     49.99%    100.00% # Number of instructions fetched each cycle (Total)
system.cpu0.fetch.rateDist::overflows               0      0.00%    100.00% # Number of instructions fetched each cycle (Total)
system.cpu0.fetch.rateDist::min_value               0                       # Number of instructions fetched each cycle (Total)
system.cpu0.fetch.rateDist::max_value               3                       # Number of instructions fetched each cycle (Total)
system.cpu0.fetch.rateDist::total            40023134                       # Number of instructions fetched each cycle (Total)
system.cpu0.fetch.branchRate                 0.499723                       # Number of branch fetches per cycle
system.cpu0.fetch.rate                       2.498391                       # Number of inst fetches per cycle
system.cpu0.decode.IdleCycles                   12280                       # Number of cycles decode is idle
system.cpu0.decode.BlockedCycles                 5699                       # Number of cycles decode is blocked
system.cpu0.decode.RunCycles                 40003770                       # Number of cycles decode is running
system.cpu0.decode.UnblockCycles                  703                       # Number of cycles decode is unblocking
system.cpu0.decode.SquashCycles                   682                       # Number of cycles decode is squashing
system.cpu0.decode.BranchResolved                2493                       # Number of times decode resolved a branch
system.cpu0.decode.BranchMispred                  205                       # Number of times decode detected a branch misprediction
system.cpu0.decode.DecodedInsts             100013330                       # Number of instructions handled by decode
system.cpu0.decode.SquashedInsts                  417                       # Number of squashed instructions handled by decode
system.cpu0.rename.SquashCycles                   682                       # Number of cycles rename is squashing
system.cpu0.rename.IdleCycles                   13024                       # Number of cycles rename is idle
system.cpu0.rename.BlockCycles                    588                       # Number of cycles rename is blocking
system.cpu0.rename.serializeStallCycles          2739                       # count of cycles rename stalled for serializing inst
system.cpu0.rename.RunCycles                 40003648                       # Number of cycles rename is running
system.cpu0.rename.UnblockCycles                 2453                       # Number of cycles rename is unblocking
system.cpu0.rename.RenamedInsts             100012015                       # Number of instructions processed by rename
system.cpu0.rename.SQFullEvents                  2349                       # Number of times rename has blocked due to SQ full
system.cpu0.rename.RenamedOperands          100014005                       # Number of destination operands rename has renamed
system.cpu0.rename.RenameLookups            460041645                       # Number of register rename lookups that rename has made
system.cpu0.rename.int_rename_lookups       100013928                       # Number of integer rename lookups
system.cpu0.rename.fp_rename_lookups               16                       # Number of floating rename lookups
system.cpu0.rename.CommittedMaps            100004355                       # Number of HB maps that are committed
system.cpu0.rename.UndoneMaps                    9620                       # Number of HB maps that are undone due to squashing
system.cpu0.rename.serializingInsts                63                       # count of serializing insts renamed
system.cpu0.rename.tempSerializingInsts            64                       # count of temporary serializing insts renamed
system.cpu0.rename.skidInsts                     1108                       # count of insts added to the skid buffer
system.cpu0.memDep0.insertedLoads            39989154                       # Number of loads inserted to the mem dependence unit.
system.cpu0.memDep0.insertedStores           19998235                       # Number of stores inserted to the mem dependence unit.
system.cpu0.memDep0.conflictingLoads         19991876                       # Number of conflicting loads.
system.cpu0.memDep0.conflictingStores        19991814                       # Number of conflicting stores.
system.cpu0.iq.iqInstsAdded                 100009611                       # Number of instructions added to the IQ (excludes non-spec)
system.cpu0.iq.iqNonSpecInstsAdded                 87                       # Number of non-speculative instructions added to the IQ
system.cpu0.iq.iqInstsIssued                100007380                       # Number of instructions issued
system.cpu0.iq.iqSquashedInstsIssued              367                       # Number of squashed instructions issued
system.cpu0.iq.iqSquashedInstsExamined           6239                       # Number of squashed instructions iterated over during squash; mainly for profiling
system.cpu0.iq.iqSquashedOperandsExamined        15308                       # Number of squashed operands that are examined and possibly removed from graph
system.cpu0.iq.iqSquashedNonSpecRemoved             7                       # Number of squashed non-spec instructions that were removed
system.cpu0.iq.issued_per_cycle::samples     40023134                       # Number of insts issued each cycle
system.cpu0.iq.issued_per_cycle::mean        2.498739                       # Number of insts issued each cycle
system.cpu0.iq.issued_per_cycle::stdev       0.708943                       # Number of insts issued each cycle
system.cpu0.iq.issued_per_cycle::underflows            0      0.00%      0.00% # Number of insts issued each cycle
system.cpu0.iq.issued_per_cycle::0              16633      0.04%      0.04% # Number of insts issued each cycle
system.cpu0.iq.issued_per_cycle::1            5005056     12.51%     12.55% # Number of insts issued each cycle
system.cpu0.iq.issued_per_cycle::2           10002011     24.99%     37.54% # Number of insts issued each cycle
system.cpu0.iq.issued_per_cycle::3           24999434     62.46%    100.00% # Number of insts issued each cycle
system.cpu0.iq.issued_per_cycle::overflows            0      0.00%    100.00% # Number of insts issued each cycle
system.cpu0.iq.issued_per_cycle::min_value            0                       # Number of insts issued each cycle
system.cpu0.iq.issued_per_cycle::max_value            3                       # Number of insts issued each cycle
system.cpu0.iq.issued_per_cycle::total       40023134                       # Number of insts issued each cycle
system.cpu0.iq.fu_full::No_OpClass                  0                       # attempts to use FU when none available
system.cpu0.iq.fu_full::IntAlu                      0                       # attempts to use FU when none available
system.cpu0.iq.fu_full::IntMult                     0                       # attempts to use FU when none available
system.cpu0.iq.fu_full::IntDiv                      0                       # attempts to use FU when none available
system.cpu0.iq.fu_full::FloatAdd                    0                       # attempts to use FU when none available
system.cpu0.iq.fu_full::FloatCmp                    0                       # attempts to use FU when none available
system.cpu0.iq.fu_full::FloatCvt                    0                       # attempts to use FU when none available
system.cpu0.iq.fu_full::FloatMult                   0                       # attempts to use FU when none available
system.cpu0.iq.fu_full::FloatDiv                    0                       # attempts to use FU when none available
system.cpu0.iq.fu_full::FloatSqrt                   0                       # attempts to use FU when none available
system.cpu0.iq.fu_full::SimdAdd                     0                       # attempts to use FU when none available
system.cpu0.iq.fu_full::SimdAddAcc                  0                       # attempts to use FU when none available
system.cpu0.iq.fu_full::SimdAlu                     0                       # attempts to use FU when none available
system.cpu0.iq.fu_full::SimdCmp                     0                       # attempts to use FU when none available
system.cpu0.iq.fu_full::SimdCvt                     0                       # attempts to use FU when none available
system.cpu0.iq.fu_full::SimdMisc                    0                       # attempts to use FU when none available
system.cpu0.iq.fu_full::SimdMult                    0                       # attempts to use FU when none available
system.cpu0.iq.fu_full::SimdMultAcc                 0                       # attempts to use FU when none available
system.cpu0.iq.fu_full::SimdShift                   0                       # attempts to use FU when none available
system.cpu0.iq.fu_full::SimdShiftAcc                0                       # attempts to use FU when none available
system.cpu0.iq.fu_full::SimdSqrt                    0                       # attempts to use FU when none available
system.cpu0.iq.fu_full::SimdFloatAdd                0                       # attempts to use FU when none available
system.cpu0.iq.fu_full::SimdFloatAlu                0                       # attempts to use FU when none available
system.cpu0.iq.fu_full::SimdFloatCmp                0                       # attempts to use FU when none available
system.cpu0.iq.fu_full::SimdFloatCvt                0                       # attempts to use FU when none available
system.cpu0.iq.fu_full::SimdFloatDiv                0                       # attempts to use FU when none available
system.cpu0.iq.fu_full::SimdFloatMisc               0                       # attempts to use FU when none available
system.cpu0.iq.fu_full::SimdFloatMult               0                       # attempts to use FU when none available
system.cpu0.iq.fu_full::SimdFloatMultAcc            0                       # attempts to use FU when none available
system.cpu0.iq.fu_full::SimdFloatSqrt               0                       # attempts to use FU when none available
system.cpu0.iq.fu_full::MemRead                     0                       # attempts to use FU when none available
system.cpu0.iq.fu_full::MemWrite                    0                       # attempts to use FU when none available
system.cpu0.iq.fu_full::IprAccess                   0                       # attempts to use FU when none available
system.cpu0.iq.fu_full::InstPrefetch                0                       # attempts to use FU when none available
system.cpu0.iq.FU_type_0::No_OpClass                0      0.00%      0.00% # Type of FU issued
system.cpu0.iq.FU_type_0::IntAlu             40020637     40.02%     40.02% # Type of FU issued
system.cpu0.iq.FU_type_0::IntMult                   6      0.00%     40.02% # Type of FU issued
system.cpu0.iq.FU_type_0::IntDiv                    0      0.00%     40.02% # Type of FU issued
system.cpu0.iq.FU_type_0::FloatAdd                  0      0.00%     40.02% # Type of FU issued
system.cpu0.iq.FU_type_0::FloatCmp                  0      0.00%     40.02% # Type of FU issued
system.cpu0.iq.FU_type_0::FloatCvt                  0      0.00%     40.02% # Type of FU issued
system.cpu0.iq.FU_type_0::FloatMult                 0      0.00%     40.02% # Type of FU issued
system.cpu0.iq.FU_type_0::FloatDiv                  0      0.00%     40.02% # Type of FU issued
system.cpu0.iq.FU_type_0::FloatSqrt                 0      0.00%     40.02% # Type of FU issued
system.cpu0.iq.FU_type_0::SimdAdd                   0      0.00%     40.02% # Type of FU issued
system.cpu0.iq.FU_type_0::SimdAddAcc                0      0.00%     40.02% # Type of FU issued
system.cpu0.iq.FU_type_0::SimdAlu                   0      0.00%     40.02% # Type of FU issued
system.cpu0.iq.FU_type_0::SimdCmp                   0      0.00%     40.02% # Type of FU issued
system.cpu0.iq.FU_type_0::SimdCvt                   0      0.00%     40.02% # Type of FU issued
system.cpu0.iq.FU_type_0::SimdMisc                  0      0.00%     40.02% # Type of FU issued
system.cpu0.iq.FU_type_0::SimdMult                  0      0.00%     40.02% # Type of FU issued
system.cpu0.iq.FU_type_0::SimdMultAcc               0      0.00%     40.02% # Type of FU issued
system.cpu0.iq.FU_type_0::SimdShift                 0      0.00%     40.02% # Type of FU issued
system.cpu0.iq.FU_type_0::SimdShiftAcc              0      0.00%     40.02% # Type of FU issued
system.cpu0.iq.FU_type_0::SimdSqrt                  0      0.00%     40.02% # Type of FU issued
system.cpu0.iq.FU_type_0::SimdFloatAdd              0      0.00%     40.02% # Type of FU issued
system.cpu0.iq.FU_type_0::SimdFloatAlu              0      0.00%     40.02% # Type of FU issued
system.cpu0.iq.FU_type_0::SimdFloatCmp              0      0.00%     40.02% # Type of FU issued
system.cpu0.iq.FU_type_0::SimdFloatCvt              0      0.00%     40.02% # Type of FU issued
system.cpu0.iq.FU_type_0::SimdFloatDiv              0      0.00%     40.02% # Type of FU issued
system.cpu0.iq.FU_type_0::SimdFloatMisc             3      0.00%     40.02% # Type of FU issued
system.cpu0.iq.FU_type_0::SimdFloatMult             0      0.00%     40.02% # Type of FU issued
system.cpu0.iq.FU_type_0::SimdFloatMultAcc            0      0.00%     40.02% # Type of FU issued
system.cpu0.iq.FU_type_0::SimdFloatSqrt             0      0.00%     40.02% # Type of FU issued
system.cpu0.iq.FU_type_0::MemRead            39988791     39.99%     80.00% # Type of FU issued
system.cpu0.iq.FU_type_0::MemWrite           19997943     20.00%    100.00% # Type of FU issued
system.cpu0.iq.FU_type_0::IprAccess                 0      0.00%    100.00% # Type of FU issued
system.cpu0.iq.FU_type_0::InstPrefetch              0      0.00%    100.00% # Type of FU issued
system.cpu0.iq.FU_type_0::total             100007380                       # Type of FU issued
system.cpu0.iq.rate                          2.498287                       # Inst issue rate
system.cpu0.iq.fu_busy_cnt                          0                       # FU busy when requested
system.cpu0.iq.fu_busy_rate                         0                       # FU busy rate (busy events/executed inst)
system.cpu0.iq.int_inst_queue_reads         240038226                       # Number of integer instruction queue reads
system.cpu0.iq.int_inst_queue_writes        100016012                       # Number of integer instruction queue writes
system.cpu0.iq.int_inst_queue_wakeup_accesses    100006048                       # Number of integer instruction queue wakeup accesses
system.cpu0.iq.fp_inst_queue_reads                 32                       # Number of floating instruction queue reads
system.cpu0.iq.fp_inst_queue_writes                16                       # Number of floating instruction queue writes
system.cpu0.iq.fp_inst_queue_wakeup_accesses           16                       # Number of floating instruction queue wakeup accesses
system.cpu0.iq.int_alu_accesses             100007364                       # Number of integer alu accesses
system.cpu0.iq.fp_alu_accesses                     16                       # Number of floating point alu accesses
system.cpu0.iew.lsq.thread0.forwLoads        19992024                       # Number of loads that had data forwarded from stores
system.cpu0.iew.lsq.thread0.invAddrLoads            0                       # Number of loads ignored due to an invalid address
system.cpu0.iew.lsq.thread0.squashedLoads         1689                       # Number of loads squashed
system.cpu0.iew.lsq.thread0.ignoredResponses            1                       # Number of memory responses ignored because the instruction is squashed
system.cpu0.iew.lsq.thread0.memOrderViolation           91                       # Number of memory ordering violations
system.cpu0.iew.lsq.thread0.squashedStores          666                       # Number of stores squashed
system.cpu0.iew.lsq.thread0.invAddrSwpfs            0                       # Number of software prefetches ignored due to an invalid address
system.cpu0.iew.lsq.thread0.blockedLoads            0                       # Number of blocked loads due to partial load-store forwarding
system.cpu0.iew.lsq.thread0.rescheduledLoads            1                       # Number of loads that were rescheduled
system.cpu0.iew.lsq.thread0.cacheBlocked            9                       # Number of times an access to memory failed due to the cache being blocked
system.cpu0.iew.iewIdleCycles                       0                       # Number of cycles IEW is idle
system.cpu0.iew.iewSquashCycles                   682                       # Number of cycles IEW is squashing
system.cpu0.iew.iewBlockCycles                    478                       # Number of cycles IEW is blocking
system.cpu0.iew.iewUnblockCycles                  115                       # Number of cycles IEW is unblocking
system.cpu0.iew.iewDispatchedInsts          100009718                       # Number of instructions dispatched to IQ
system.cpu0.iew.iewDispSquashedInsts              437                       # Number of squashed instructions skipped by dispatch
system.cpu0.iew.iewDispLoadInsts             39989154                       # Number of dispatched load instructions
system.cpu0.iew.iewDispStoreInsts            19998235                       # Number of dispatched store instructions
system.cpu0.iew.iewDispNonSpecInsts                59                       # Number of dispatched non-speculative instructions
system.cpu0.iew.iewIQFullEvents                     2                       # Number of times the IQ has become full, causing a stall
system.cpu0.iew.iewLSQFullEvents                    0                       # Number of times the LSQ has become full, causing a stall
system.cpu0.iew.memOrderViolationEvents            91                       # Number of memory order violations
system.cpu0.iew.predictedTakenIncorrect            79                       # Number of branches that were predicted taken incorrectly
system.cpu0.iew.predictedNotTakenIncorrect          527                       # Number of branches that were predicted not taken incorrectly
system.cpu0.iew.branchMispredicts                 606                       # Number of branch mispredicts detected at execute
system.cpu0.iew.iewExecutedInsts            100006600                       # Number of executed instructions
system.cpu0.iew.iewExecLoadInsts             39988565                       # Number of load instructions executed
system.cpu0.iew.iewExecSquashedInsts              777                       # Number of squashed instructions skipped in execute
system.cpu0.iew.exec_swp                            0                       # number of swp insts executed
system.cpu0.iew.exec_nop                           20                       # number of nop insts executed
system.cpu0.iew.exec_refs                    59986320                       # number of memory reference insts executed
system.cpu0.iew.exec_branches                20002248                       # Number of branches executed
system.cpu0.iew.exec_stores                  19997755                       # Number of stores executed
system.cpu0.iew.exec_rate                    2.498268                       # Inst execution rate
system.cpu0.iew.wb_sent                     100006165                       # cumulative count of insts sent to commit
system.cpu0.iew.wb_count                    100006064                       # cumulative count of insts written-back
system.cpu0.iew.wb_producers                 59999109                       # num instructions producing a value
system.cpu0.iew.wb_consumers                 60010557                       # num instructions consuming a value
system.cpu0.iew.wb_penalized                        0                       # number of instrctions required to write to 'other' IQ
system.cpu0.iew.wb_rate                      2.498254                       # insts written-back per cycle
system.cpu0.iew.wb_fanout                    0.999809                       # average fanout of values written-back
system.cpu0.iew.wb_penalized_rate                   0                       # fraction of instructions written-back that wrote to 'other' IQ
system.cpu0.commit.commitSquashedInsts           6259                       # The number of squashed insts skipped by commit
system.cpu0.commit.commitNonSpecStalls             80                       # The number of times commit has been forced to stall to communicate backwards
system.cpu0.commit.branchMispredicts              569                       # The number of times a branch was mispredicted
system.cpu0.commit.committed_per_cycle::samples     40021999                       # Number of insts commited each cycle
system.cpu0.commit.committed_per_cycle::mean     2.498712                       # Number of insts commited each cycle
system.cpu0.commit.committed_per_cycle::stdev     1.581522                       # Number of insts commited each cycle
system.cpu0.commit.committed_per_cycle::underflows            0      0.00%      0.00% # Number of insts commited each cycle
system.cpu0.commit.committed_per_cycle::0        17819      0.04%      0.04% # Number of insts commited each cycle
system.cpu0.commit.committed_per_cycle::1     20000462     49.97%     50.02% # Number of insts commited each cycle
system.cpu0.commit.committed_per_cycle::2         3459      0.01%     50.03% # Number of insts commited each cycle
system.cpu0.commit.committed_per_cycle::3      5003855     12.50%     62.53% # Number of insts commited each cycle
system.cpu0.commit.committed_per_cycle::4      9998090     24.98%     87.51% # Number of insts commited each cycle
system.cpu0.commit.committed_per_cycle::5      4998044     12.49%    100.00% # Number of insts commited each cycle
system.cpu0.commit.committed_per_cycle::6           74      0.00%    100.00% # Number of insts commited each cycle
system.cpu0.commit.committed_per_cycle::7          102      0.00%    100.00% # Number of insts commited each cycle
system.cpu0.commit.committed_per_cycle::8           94      0.00%    100.00% # Number of insts commited each cycle
system.cpu0.commit.committed_per_cycle::overflows            0      0.00%    100.00% # Number of insts commited each cycle
system.cpu0.commit.committed_per_cycle::min_value            0                       # Number of insts commited each cycle
system.cpu0.commit.committed_per_cycle::max_value            8                       # Number of insts commited each cycle
system.cpu0.commit.committed_per_cycle::total     40021999                       # Number of insts commited each cycle
system.cpu0.commit.committedInsts           100000000                       # Number of instructions committed
system.cpu0.commit.committedOps             100003435                       # Number of ops (including micro ops) committed
system.cpu0.commit.swp_count                        0                       # Number of s/w prefetches committed
system.cpu0.commit.refs                      59985019                       # Number of memory references committed
system.cpu0.commit.loads                     39987455                       # Number of loads committed
system.cpu0.commit.membars                         28                       # Number of memory barriers committed
system.cpu0.commit.branches                  20001809                       # Number of branches committed
system.cpu0.commit.fp_insts                        16                       # Number of committed floating point instructions.
system.cpu0.commit.int_insts                 80006119                       # Number of committed integer instructions.
system.cpu0.commit.function_calls                2204                       # Number of function calls committed.
system.cpu0.commit.op_class_0::No_OpClass            0      0.00%      0.00% # Class of committed instruction
system.cpu0.commit.op_class_0::IntAlu        40018407     40.02%     40.02% # Class of committed instruction
system.cpu0.commit.op_class_0::IntMult              6      0.00%     40.02% # Class of committed instruction
system.cpu0.commit.op_class_0::IntDiv               0      0.00%     40.02% # Class of committed instruction
system.cpu0.commit.op_class_0::FloatAdd             0      0.00%     40.02% # Class of committed instruction
system.cpu0.commit.op_class_0::FloatCmp             0      0.00%     40.02% # Class of committed instruction
system.cpu0.commit.op_class_0::FloatCvt             0      0.00%     40.02% # Class of committed instruction
system.cpu0.commit.op_class_0::FloatMult            0      0.00%     40.02% # Class of committed instruction
system.cpu0.commit.op_class_0::FloatDiv             0      0.00%     40.02% # Class of committed instruction
system.cpu0.commit.op_class_0::FloatSqrt            0      0.00%     40.02% # Class of committed instruction
system.cpu0.commit.op_class_0::SimdAdd              0      0.00%     40.02% # Class of committed instruction
system.cpu0.commit.op_class_0::SimdAddAcc            0      0.00%     40.02% # Class of committed instruction
system.cpu0.commit.op_class_0::SimdAlu              0      0.00%     40.02% # Class of committed instruction
system.cpu0.commit.op_class_0::SimdCmp              0      0.00%     40.02% # Class of committed instruction
system.cpu0.commit.op_class_0::SimdCvt              0      0.00%     40.02% # Class of committed instruction
system.cpu0.commit.op_class_0::SimdMisc             0      0.00%     40.02% # Class of committed instruction
system.cpu0.commit.op_class_0::SimdMult             0      0.00%     40.02% # Class of committed instruction
system.cpu0.commit.op_class_0::SimdMultAcc            0      0.00%     40.02% # Class of committed instruction
system.cpu0.commit.op_class_0::SimdShift            0      0.00%     40.02% # Class of committed instruction
system.cpu0.commit.op_class_0::SimdShiftAcc            0      0.00%     40.02% # Class of committed instruction
system.cpu0.commit.op_class_0::SimdSqrt             0      0.00%     40.02% # Class of committed instruction
system.cpu0.commit.op_class_0::SimdFloatAdd            0      0.00%     40.02% # Class of committed instruction
system.cpu0.commit.op_class_0::SimdFloatAlu            0      0.00%     40.02% # Class of committed instruction
system.cpu0.commit.op_class_0::SimdFloatCmp            0      0.00%     40.02% # Class of committed instruction
system.cpu0.commit.op_class_0::SimdFloatCvt            0      0.00%     40.02% # Class of committed instruction
system.cpu0.commit.op_class_0::SimdFloatDiv            0      0.00%     40.02% # Class of committed instruction
system.cpu0.commit.op_class_0::SimdFloatMisc            3      0.00%     40.02% # Class of committed instruction
system.cpu0.commit.op_class_0::SimdFloatMult            0      0.00%     40.02% # Class of committed instruction
system.cpu0.commit.op_class_0::SimdFloatMultAcc            0      0.00%     40.02% # Class of committed instruction
system.cpu0.commit.op_class_0::SimdFloatSqrt            0      0.00%     40.02% # Class of committed instruction
system.cpu0.commit.op_class_0::MemRead       39987455     39.99%     80.00% # Class of committed instruction
system.cpu0.commit.op_class_0::MemWrite      19997564     20.00%    100.00% # Class of committed instruction
system.cpu0.commit.op_class_0::IprAccess            0      0.00%    100.00% # Class of committed instruction
system.cpu0.commit.op_class_0::InstPrefetch            0      0.00%    100.00% # Class of committed instruction
system.cpu0.commit.op_class_0::total        100003435                       # Class of committed instruction
system.cpu0.commit.bw_lim_events                   94                       # number cycles where commit BW limit reached
system.cpu0.rob.rob_reads                   140031286                       # The number of ROB reads
system.cpu0.rob.rob_writes                  200020554                       # The number of ROB writes
system.cpu0.timesIdled                            230                       # Number of times that the entire CPU went into an idle state and unscheduled itself
system.cpu0.idleCycles                           7246                       # Total number of cycles that the CPU has spent unscheduled due to idling
system.cpu0.committedInsts                  100000000                       # Number of Instructions Simulated
system.cpu0.committedOps                    100003435                       # Number of Ops (including micro ops) Simulated
system.cpu0.cpi                              0.400304                       # CPI: Cycles Per Instruction
system.cpu0.cpi_total                        0.400304                       # CPI: Total CPI of All Threads
system.cpu0.ipc                              2.498103                       # IPC: Instructions Per Cycle
system.cpu0.ipc_total                        2.498103                       # IPC: Total IPC of All Threads
system.cpu0.int_regfile_reads               100005454                       # number of integer regfile reads
system.cpu0.int_regfile_writes               40011342                       # number of integer regfile writes
system.cpu0.fp_regfile_reads                     1296                       # number of floating regfile reads
system.cpu0.cc_regfile_reads                419983864                       # number of cc regfile reads
system.cpu0.cc_regfile_writes                59995926                       # number of cc regfile writes
system.cpu0.misc_regfile_reads               61244129                       # number of misc regfile reads
system.cpu0.misc_regfile_writes                    58                       # number of misc regfile writes
system.cpu0.dcache.tags.replacements              606                       # number of replacements
system.cpu0.dcache.tags.tagsinuse           74.580358                       # Cycle average of tags in use
system.cpu0.dcache.tags.total_refs           39987889                       # Total number of references to valid blocks.
system.cpu0.dcache.tags.sampled_refs              666                       # Sample count of references to valid blocks.
system.cpu0.dcache.tags.avg_refs         60041.875375                       # Average number of references to valid blocks.
system.cpu0.dcache.tags.warmup_cycle         26923000                       # Cycle when the warmup percentage was hit.
system.cpu0.dcache.tags.occ_blocks::cpu0.data    74.580358                       # Average occupied blocks per requestor
system.cpu0.dcache.tags.occ_percent::cpu0.data     0.145665                       # Average percentage of cache occupancy
system.cpu0.dcache.tags.occ_percent::total     0.145665                       # Average percentage of cache occupancy
system.cpu0.dcache.tags.occ_task_id_blocks::1024           60                       # Occupied blocks per task id
system.cpu0.dcache.tags.age_task_id_blocks_1024::4           60                       # Occupied blocks per task id
system.cpu0.dcache.tags.occ_task_id_percent::1024     0.117188                       # Percentage of cache occupancy per task id
system.cpu0.dcache.tags.tag_accesses         79988887                       # Number of tag accesses
system.cpu0.dcache.tags.data_accesses        79988887                       # Number of data accesses
system.cpu0.dcache.ReadReq_hits::cpu0.data     19996118                       # number of ReadReq hits
system.cpu0.dcache.ReadReq_hits::total       19996118                       # number of ReadReq hits
system.cpu0.dcache.WriteReq_hits::cpu0.data     19993016                       # number of WriteReq hits
system.cpu0.dcache.WriteReq_hits::total      19993016                       # number of WriteReq hits
system.cpu0.dcache.LoadLockedReq_hits::cpu0.data           25                       # number of LoadLockedReq hits
system.cpu0.dcache.LoadLockedReq_hits::total           25                       # number of LoadLockedReq hits
system.cpu0.dcache.StoreCondReq_hits::cpu0.data           27                       # number of StoreCondReq hits
system.cpu0.dcache.StoreCondReq_hits::total           27                       # number of StoreCondReq hits
system.cpu0.dcache.demand_hits::cpu0.data     39989134                       # number of demand (read+write) hits
system.cpu0.dcache.demand_hits::total        39989134                       # number of demand (read+write) hits
system.cpu0.dcache.overall_hits::cpu0.data     39989134                       # number of overall hits
system.cpu0.dcache.overall_hits::total       39989134                       # number of overall hits
system.cpu0.dcache.ReadReq_misses::cpu0.data          212                       # number of ReadReq misses
system.cpu0.dcache.ReadReq_misses::total          212                       # number of ReadReq misses
system.cpu0.dcache.WriteReq_misses::cpu0.data         4478                       # number of WriteReq misses
system.cpu0.dcache.WriteReq_misses::total         4478                       # number of WriteReq misses
system.cpu0.dcache.LoadLockedReq_misses::cpu0.data            5                       # number of LoadLockedReq misses
system.cpu0.dcache.LoadLockedReq_misses::total            5                       # number of LoadLockedReq misses
system.cpu0.dcache.demand_misses::cpu0.data         4690                       # number of demand (read+write) misses
system.cpu0.dcache.demand_misses::total          4690                       # number of demand (read+write) misses
system.cpu0.dcache.overall_misses::cpu0.data         4690                       # number of overall misses
system.cpu0.dcache.overall_misses::total         4690                       # number of overall misses
system.cpu0.dcache.ReadReq_miss_latency::cpu0.data      8585487                       # number of ReadReq miss cycles
system.cpu0.dcache.ReadReq_miss_latency::total      8585487                       # number of ReadReq miss cycles
system.cpu0.dcache.WriteReq_miss_latency::cpu0.data    224246999                       # number of WriteReq miss cycles
system.cpu0.dcache.WriteReq_miss_latency::total    224246999                       # number of WriteReq miss cycles
system.cpu0.dcache.LoadLockedReq_miss_latency::cpu0.data       171500                       # number of LoadLockedReq miss cycles
system.cpu0.dcache.LoadLockedReq_miss_latency::total       171500                       # number of LoadLockedReq miss cycles
system.cpu0.dcache.demand_miss_latency::cpu0.data    232832486                       # number of demand (read+write) miss cycles
system.cpu0.dcache.demand_miss_latency::total    232832486                       # number of demand (read+write) miss cycles
system.cpu0.dcache.overall_miss_latency::cpu0.data    232832486                       # number of overall miss cycles
system.cpu0.dcache.overall_miss_latency::total    232832486                       # number of overall miss cycles
system.cpu0.dcache.ReadReq_accesses::cpu0.data     19996330                       # number of ReadReq accesses(hits+misses)
system.cpu0.dcache.ReadReq_accesses::total     19996330                       # number of ReadReq accesses(hits+misses)
system.cpu0.dcache.WriteReq_accesses::cpu0.data     19997494                       # number of WriteReq accesses(hits+misses)
system.cpu0.dcache.WriteReq_accesses::total     19997494                       # number of WriteReq accesses(hits+misses)
system.cpu0.dcache.LoadLockedReq_accesses::cpu0.data           30                       # number of LoadLockedReq accesses(hits+misses)
system.cpu0.dcache.LoadLockedReq_accesses::total           30                       # number of LoadLockedReq accesses(hits+misses)
system.cpu0.dcache.StoreCondReq_accesses::cpu0.data           27                       # number of StoreCondReq accesses(hits+misses)
system.cpu0.dcache.StoreCondReq_accesses::total           27                       # number of StoreCondReq accesses(hits+misses)
system.cpu0.dcache.demand_accesses::cpu0.data     39993824                       # number of demand (read+write) accesses
system.cpu0.dcache.demand_accesses::total     39993824                       # number of demand (read+write) accesses
system.cpu0.dcache.overall_accesses::cpu0.data     39993824                       # number of overall (read+write) accesses
system.cpu0.dcache.overall_accesses::total     39993824                       # number of overall (read+write) accesses
system.cpu0.dcache.ReadReq_miss_rate::cpu0.data     0.000011                       # miss rate for ReadReq accesses
system.cpu0.dcache.ReadReq_miss_rate::total     0.000011                       # miss rate for ReadReq accesses
system.cpu0.dcache.WriteReq_miss_rate::cpu0.data     0.000224                       # miss rate for WriteReq accesses
system.cpu0.dcache.WriteReq_miss_rate::total     0.000224                       # miss rate for WriteReq accesses
system.cpu0.dcache.LoadLockedReq_miss_rate::cpu0.data     0.166667                       # miss rate for LoadLockedReq accesses
system.cpu0.dcache.LoadLockedReq_miss_rate::total     0.166667                       # miss rate for LoadLockedReq accesses
system.cpu0.dcache.demand_miss_rate::cpu0.data     0.000117                       # miss rate for demand accesses
system.cpu0.dcache.demand_miss_rate::total     0.000117                       # miss rate for demand accesses
system.cpu0.dcache.overall_miss_rate::cpu0.data     0.000117                       # miss rate for overall accesses
system.cpu0.dcache.overall_miss_rate::total     0.000117                       # miss rate for overall accesses
system.cpu0.dcache.ReadReq_avg_miss_latency::cpu0.data 40497.580189                       # average ReadReq miss latency
system.cpu0.dcache.ReadReq_avg_miss_latency::total 40497.580189                       # average ReadReq miss latency
system.cpu0.dcache.WriteReq_avg_miss_latency::cpu0.data 50077.489728                       # average WriteReq miss latency
system.cpu0.dcache.WriteReq_avg_miss_latency::total 50077.489728                       # average WriteReq miss latency
system.cpu0.dcache.LoadLockedReq_avg_miss_latency::cpu0.data        34300                       # average LoadLockedReq miss latency
system.cpu0.dcache.LoadLockedReq_avg_miss_latency::total        34300                       # average LoadLockedReq miss latency
system.cpu0.dcache.demand_avg_miss_latency::cpu0.data 49644.453305                       # average overall miss latency
system.cpu0.dcache.demand_avg_miss_latency::total 49644.453305                       # average overall miss latency
system.cpu0.dcache.overall_avg_miss_latency::cpu0.data 49644.453305                       # average overall miss latency
system.cpu0.dcache.overall_avg_miss_latency::total 49644.453305                       # average overall miss latency
system.cpu0.dcache.blocked_cycles::no_mshrs           72                       # number of cycles access was blocked
system.cpu0.dcache.blocked_cycles::no_targets            0                       # number of cycles access was blocked
system.cpu0.dcache.blocked::no_mshrs                7                       # number of cycles access was blocked
system.cpu0.dcache.blocked::no_targets              0                       # number of cycles access was blocked
system.cpu0.dcache.avg_blocked_cycles::no_mshrs    10.285714                       # average number of cycles each access was blocked
system.cpu0.dcache.avg_blocked_cycles::no_targets          nan                       # average number of cycles each access was blocked
system.cpu0.dcache.fast_writes                      0                       # number of fast writes performed
system.cpu0.dcache.cache_copies                     0                       # number of cache copies performed
system.cpu0.dcache.writebacks::writebacks          528                       # number of writebacks
system.cpu0.dcache.writebacks::total              528                       # number of writebacks
system.cpu0.dcache.ReadReq_mshr_hits::cpu0.data           58                       # number of ReadReq MSHR hits
system.cpu0.dcache.ReadReq_mshr_hits::total           58                       # number of ReadReq MSHR hits
system.cpu0.dcache.WriteReq_mshr_hits::cpu0.data         3506                       # number of WriteReq MSHR hits
system.cpu0.dcache.WriteReq_mshr_hits::total         3506                       # number of WriteReq MSHR hits
system.cpu0.dcache.LoadLockedReq_mshr_hits::cpu0.data            5                       # number of LoadLockedReq MSHR hits
system.cpu0.dcache.LoadLockedReq_mshr_hits::total            5                       # number of LoadLockedReq MSHR hits
system.cpu0.dcache.demand_mshr_hits::cpu0.data         3564                       # number of demand (read+write) MSHR hits
system.cpu0.dcache.demand_mshr_hits::total         3564                       # number of demand (read+write) MSHR hits
system.cpu0.dcache.overall_mshr_hits::cpu0.data         3564                       # number of overall MSHR hits
system.cpu0.dcache.overall_mshr_hits::total         3564                       # number of overall MSHR hits
system.cpu0.dcache.ReadReq_mshr_misses::cpu0.data          154                       # number of ReadReq MSHR misses
system.cpu0.dcache.ReadReq_mshr_misses::total          154                       # number of ReadReq MSHR misses
system.cpu0.dcache.WriteReq_mshr_misses::cpu0.data          972                       # number of WriteReq MSHR misses
system.cpu0.dcache.WriteReq_mshr_misses::total          972                       # number of WriteReq MSHR misses
system.cpu0.dcache.demand_mshr_misses::cpu0.data         1126                       # number of demand (read+write) MSHR misses
system.cpu0.dcache.demand_mshr_misses::total         1126                       # number of demand (read+write) MSHR misses
system.cpu0.dcache.overall_mshr_misses::cpu0.data         1126                       # number of overall MSHR misses
system.cpu0.dcache.overall_mshr_misses::total         1126                       # number of overall MSHR misses
system.cpu0.dcache.ReadReq_mshr_miss_latency::cpu0.data      6078509                       # number of ReadReq MSHR miss cycles
system.cpu0.dcache.ReadReq_mshr_miss_latency::total      6078509                       # number of ReadReq MSHR miss cycles
system.cpu0.dcache.WriteReq_mshr_miss_latency::cpu0.data     53229500                       # number of WriteReq MSHR miss cycles
system.cpu0.dcache.WriteReq_mshr_miss_latency::total     53229500                       # number of WriteReq MSHR miss cycles
system.cpu0.dcache.demand_mshr_miss_latency::cpu0.data     59308009                       # number of demand (read+write) MSHR miss cycles
system.cpu0.dcache.demand_mshr_miss_latency::total     59308009                       # number of demand (read+write) MSHR miss cycles
system.cpu0.dcache.overall_mshr_miss_latency::cpu0.data     59308009                       # number of overall MSHR miss cycles
system.cpu0.dcache.overall_mshr_miss_latency::total     59308009                       # number of overall MSHR miss cycles
system.cpu0.dcache.ReadReq_mshr_miss_rate::cpu0.data     0.000008                       # mshr miss rate for ReadReq accesses
system.cpu0.dcache.ReadReq_mshr_miss_rate::total     0.000008                       # mshr miss rate for ReadReq accesses
system.cpu0.dcache.WriteReq_mshr_miss_rate::cpu0.data     0.000049                       # mshr miss rate for WriteReq accesses
system.cpu0.dcache.WriteReq_mshr_miss_rate::total     0.000049                       # mshr miss rate for WriteReq accesses
system.cpu0.dcache.demand_mshr_miss_rate::cpu0.data     0.000028                       # mshr miss rate for demand accesses
system.cpu0.dcache.demand_mshr_miss_rate::total     0.000028                       # mshr miss rate for demand accesses
system.cpu0.dcache.overall_mshr_miss_rate::cpu0.data     0.000028                       # mshr miss rate for overall accesses
system.cpu0.dcache.overall_mshr_miss_rate::total     0.000028                       # mshr miss rate for overall accesses
system.cpu0.dcache.ReadReq_avg_mshr_miss_latency::cpu0.data 39470.837662                       # average ReadReq mshr miss latency
system.cpu0.dcache.ReadReq_avg_mshr_miss_latency::total 39470.837662                       # average ReadReq mshr miss latency
system.cpu0.dcache.WriteReq_avg_mshr_miss_latency::cpu0.data 54762.860082                       # average WriteReq mshr miss latency
system.cpu0.dcache.WriteReq_avg_mshr_miss_latency::total 54762.860082                       # average WriteReq mshr miss latency
system.cpu0.dcache.demand_avg_mshr_miss_latency::cpu0.data 52671.411190                       # average overall mshr miss latency
system.cpu0.dcache.demand_avg_mshr_miss_latency::total 52671.411190                       # average overall mshr miss latency
system.cpu0.dcache.overall_avg_mshr_miss_latency::cpu0.data 52671.411190                       # average overall mshr miss latency
system.cpu0.dcache.overall_avg_mshr_miss_latency::total 52671.411190                       # average overall mshr miss latency
system.cpu0.dcache.no_allocate_misses               0                       # Number of misses that were no-allocate
system.cpu0.icache.tags.replacements               59                       # number of replacements
system.cpu0.icache.tags.tagsinuse          294.871314                       # Cycle average of tags in use
system.cpu0.icache.tags.total_refs               6677                       # Total number of references to valid blocks.
system.cpu0.icache.tags.sampled_refs              354                       # Sample count of references to valid blocks.
system.cpu0.icache.tags.avg_refs            18.861582                       # Average number of references to valid blocks.
system.cpu0.icache.tags.warmup_cycle                0                       # Cycle when the warmup percentage was hit.
system.cpu0.icache.tags.occ_blocks::cpu0.inst   294.871314                       # Average occupied blocks per requestor
system.cpu0.icache.tags.occ_percent::cpu0.inst     0.575921                       # Average percentage of cache occupancy
system.cpu0.icache.tags.occ_percent::total     0.575921                       # Average percentage of cache occupancy
system.cpu0.icache.tags.occ_task_id_blocks::1024          295                       # Occupied blocks per task id
system.cpu0.icache.tags.age_task_id_blocks_1024::4          295                       # Occupied blocks per task id
system.cpu0.icache.tags.occ_task_id_percent::1024     0.576172                       # Percentage of cache occupancy per task id
system.cpu0.icache.tags.tag_accesses            14558                       # Number of tag accesses
system.cpu0.icache.tags.data_accesses           14558                       # Number of data accesses
system.cpu0.icache.ReadReq_hits::cpu0.inst         6677                       # number of ReadReq hits
system.cpu0.icache.ReadReq_hits::total           6677                       # number of ReadReq hits
system.cpu0.icache.demand_hits::cpu0.inst         6677                       # number of demand (read+write) hits
system.cpu0.icache.demand_hits::total            6677                       # number of demand (read+write) hits
system.cpu0.icache.overall_hits::cpu0.inst         6677                       # number of overall hits
system.cpu0.icache.overall_hits::total           6677                       # number of overall hits
system.cpu0.icache.ReadReq_misses::cpu0.inst          425                       # number of ReadReq misses
system.cpu0.icache.ReadReq_misses::total          425                       # number of ReadReq misses
system.cpu0.icache.demand_misses::cpu0.inst          425                       # number of demand (read+write) misses
[...]
system.l2.demand_avg_mshr_miss_latency::cpu8.data 40525.315104                       # average overall mshr miss latency
system.l2.demand_avg_mshr_miss_latency::total 40547.754593                       # average overall mshr miss latency
system.l2.overall_avg_mshr_miss_latency::cpu0.inst 41080.547112                       # average overall mshr miss latency
system.l2.overall_avg_mshr_miss_latency::cpu0.data 40718.571429                       # average overall mshr miss latency
system.l2.overall_avg_mshr_miss_latency::cpu1.inst 40823.943662                       # average overall mshr miss latency
system.l2.overall_avg_mshr_miss_latency::cpu1.data 40550.733439                       # average overall mshr miss latency
system.l2.overall_avg_mshr_miss_latency::cpu2.inst 40786.666667                       # average overall mshr miss latency
system.l2.overall_avg_mshr_miss_latency::cpu2.data 40559.866280                       # average overall mshr miss latency
system.l2.overall_avg_mshr_miss_latency::cpu3.inst 40738.095238                       # average overall mshr miss latency
system.l2.overall_avg_mshr_miss_latency::cpu3.data 40545.433494                       # average overall mshr miss latency
system.l2.overall_avg_mshr_miss_latency::cpu4.inst 40894.495413                       # average overall mshr miss latency
system.l2.overall_avg_mshr_miss_latency::cpu4.data 40534.048588                       # average overall mshr miss latency
system.l2.overall_avg_mshr_miss_latency::cpu5.inst 41715.686275                       # average overall mshr miss latency
system.l2.overall_avg_mshr_miss_latency::cpu5.data 40549.961652                       # average overall mshr miss latency
system.l2.overall_avg_mshr_miss_latency::cpu6.inst 40904.761905                       # average overall mshr miss latency
system.l2.overall_avg_mshr_miss_latency::cpu6.data 40530.411539                       # average overall mshr miss latency
system.l2.overall_avg_mshr_miss_latency::cpu7.inst 41777.777778                       # average overall mshr miss latency
system.l2.overall_avg_mshr_miss_latency::cpu7.data 40528.341653                       # average overall mshr miss latency
system.l2.overall_avg_mshr_miss_latency::cpu8.inst 40603.960396                       # average overall mshr miss latency
system.l2.overall_avg_mshr_miss_latency::cpu8.data 40525.315104                       # average overall mshr miss latency
system.l2.overall_avg_mshr_miss_latency::total 40547.754593                       # average overall mshr miss latency
system.l2.no_allocate_misses                        0                       # Number of misses that were no-allocate
system.membus.trans_dist::ReadReq               79062                       # Transaction distribution
system.membus.trans_dist::ReadResp              79062                       # Transaction distribution
system.membus.trans_dist::Writeback              9089                       # Transaction distribution
system.membus.trans_dist::UpgradeReq           367749                       # Transaction distribution
system.membus.trans_dist::SCUpgradeReq         546636                       # Transaction distribution
system.membus.trans_dist::UpgradeResp          409114                       # Transaction distribution
system.membus.trans_dist::SCUpgradeFailReq          709                       # Transaction distribution
system.membus.trans_dist::ReadExReq             17729                       # Transaction distribution
system.membus.trans_dist::ReadExResp             3841                       # Transaction distribution
system.membus.pkt_count_system.l2.mem_side::system.physmem.port      1512991                       # Packet count per connected master and slave (bytes)
system.membus.pkt_count::total                1512991                       # Packet count per connected master and slave (bytes)
system.membus.pkt_size_system.l2.mem_side::system.physmem.port      5887488                       # Cumulative packet size per connected master and slave (bytes)
system.membus.pkt_size::total                 5887488                       # Cumulative packet size per connected master and slave (bytes)
system.membus.snoops                           519868                       # Total snoops (count)
system.membus.snoop_fanout::samples           1025967                       # Request fanout histogram
system.membus.snoop_fanout::mean                    0                       # Request fanout histogram
system.membus.snoop_fanout::stdev                   0                       # Request fanout histogram
system.membus.snoop_fanout::underflows              0      0.00%      0.00% # Request fanout histogram
system.membus.snoop_fanout::0                 1025967    100.00%    100.00% # Request fanout histogram
system.membus.snoop_fanout::1                       0      0.00%    100.00% # Request fanout histogram
system.membus.snoop_fanout::overflows               0      0.00%    100.00% # Request fanout histogram
system.membus.snoop_fanout::min_value               0                       # Request fanout histogram
system.membus.snoop_fanout::max_value               0                       # Request fanout histogram
system.membus.snoop_fanout::total             1025967                       # Request fanout histogram
system.membus.reqLayer0.occupancy           752558545                       # Layer occupancy (ticks)
system.membus.reqLayer0.utilization               1.9                       # Layer utilization (%)
system.membus.respLayer1.occupancy         1024965995                       # Layer occupancy (ticks)
system.membus.respLayer1.utilization              2.6                       # Layer utilization (%)
system.tol2bus.trans_dist::ReadReq            4634963                       # Transaction distribution
system.tol2bus.trans_dist::ReadResp           4619665                       # Transaction distribution
system.tol2bus.trans_dist::ReadRespWithInvalidate        15298                       # Transaction distribution
system.tol2bus.trans_dist::Writeback            62528                       # Transaction distribution
system.tol2bus.trans_dist::UpgradeReq          367979                       # Transaction distribution
system.tol2bus.trans_dist::SCUpgradeReq        546657                       # Transaction distribution
system.tol2bus.trans_dist::UpgradeResp         914636                       # Transaction distribution
system.tol2bus.trans_dist::SCUpgradeFailReq       159816                       # Transaction distribution
system.tol2bus.trans_dist::UpgradeFailResp       159816                       # Transaction distribution
system.tol2bus.trans_dist::ReadExReq           184286                       # Transaction distribution
system.tol2bus.trans_dist::ReadExResp          184286                       # Transaction distribution
system.tol2bus.pkt_count_system.cpu0.icache.mem_side::system.l2.cpu_side          708                       # Packet count per connected master and slave (bytes)
system.tol2bus.pkt_count_system.cpu0.dcache.mem_side::system.l2.cpu_side         2780                       # Packet count per connected master and slave (bytes)
system.tol2bus.pkt_count_system.cpu1.icache.mem_side::system.l2.cpu_side        10565                       # Packet count per connected master and slave (bytes)
system.tol2bus.pkt_count_system.cpu1.dcache.mem_side::system.l2.cpu_side       810265                       # Packet count per connected master and slave (bytes)
system.tol2bus.pkt_count_system.cpu2.icache.mem_side::system.l2.cpu_side         9632                       # Packet count per connected master and slave (bytes)
system.tol2bus.pkt_count_system.cpu2.dcache.mem_side::system.l2.cpu_side       856945                       # Packet count per connected master and slave (bytes)
system.tol2bus.pkt_count_system.cpu3.icache.mem_side::system.l2.cpu_side        10237                       # Packet count per connected master and slave (bytes)
system.tol2bus.pkt_count_system.cpu3.dcache.mem_side::system.l2.cpu_side       825631                       # Packet count per connected master and slave (bytes)
system.tol2bus.pkt_count_system.cpu4.icache.mem_side::system.l2.cpu_side         8798                       # Packet count per connected master and slave (bytes)
system.tol2bus.pkt_count_system.cpu4.dcache.mem_side::system.l2.cpu_side       830724                       # Packet count per connected master and slave (bytes)
system.tol2bus.pkt_count_system.cpu5.icache.mem_side::system.l2.cpu_side        11324                       # Packet count per connected master and slave (bytes)
system.tol2bus.pkt_count_system.cpu5.dcache.mem_side::system.l2.cpu_side       844648                       # Packet count per connected master and slave (bytes)
system.tol2bus.pkt_count_system.cpu6.icache.mem_side::system.l2.cpu_side         8280                       # Packet count per connected master and slave (bytes)
system.tol2bus.pkt_count_system.cpu6.dcache.mem_side::system.l2.cpu_side       869856                       # Packet count per connected master and slave (bytes)
system.tol2bus.pkt_count_system.cpu7.icache.mem_side::system.l2.cpu_side         8397                       # Packet count per connected master and slave (bytes)
system.tol2bus.pkt_count_system.cpu7.dcache.mem_side::system.l2.cpu_side       855443                       # Packet count per connected master and slave (bytes)
system.tol2bus.pkt_count_system.cpu8.icache.mem_side::system.l2.cpu_side         7926                       # Packet count per connected master and slave (bytes)
system.tol2bus.pkt_count_system.cpu8.dcache.mem_side::system.l2.cpu_side       688958                       # Packet count per connected master and slave (bytes)
system.tol2bus.pkt_count::total               6661117                       # Packet count per connected master and slave (bytes)
system.tol2bus.pkt_size_system.cpu0.icache.mem_side::system.l2.cpu_side        22656                       # Cumulative packet size per connected master and slave (bytes)
system.tol2bus.pkt_size_system.cpu0.dcache.mem_side::system.l2.cpu_side       105792                       # Cumulative packet size per connected master and slave (bytes)
system.tol2bus.pkt_size_system.cpu1.icache.mem_side::system.l2.cpu_side       338048                       # Cumulative packet size per connected master and slave (bytes)
system.tol2bus.pkt_size_system.cpu1.dcache.mem_side::system.l2.cpu_side      2434752                       # Cumulative packet size per connected master and slave (bytes)
system.tol2bus.pkt_size_system.cpu2.icache.mem_side::system.l2.cpu_side       308224                       # Cumulative packet size per connected master and slave (bytes)
system.tol2bus.pkt_size_system.cpu2.dcache.mem_side::system.l2.cpu_side      2585472                       # Cumulative packet size per connected master and slave (bytes)
system.tol2bus.pkt_size_system.cpu3.icache.mem_side::system.l2.cpu_side       327552                       # Cumulative packet size per connected master and slave (bytes)
system.tol2bus.pkt_size_system.cpu3.dcache.mem_side::system.l2.cpu_side      2394688                       # Cumulative packet size per connected master and slave (bytes)
system.tol2bus.pkt_size_system.cpu4.icache.mem_side::system.l2.cpu_side       281536                       # Cumulative packet size per connected master and slave (bytes)
system.tol2bus.pkt_size_system.cpu4.dcache.mem_side::system.l2.cpu_side      2360768                       # Cumulative packet size per connected master and slave (bytes)
system.tol2bus.pkt_size_system.cpu5.icache.mem_side::system.l2.cpu_side       362368                       # Cumulative packet size per connected master and slave (bytes)
system.tol2bus.pkt_size_system.cpu5.dcache.mem_side::system.l2.cpu_side      2660288                       # Cumulative packet size per connected master and slave (bytes)
system.tol2bus.pkt_size_system.cpu6.icache.mem_side::system.l2.cpu_side       264960                       # Cumulative packet size per connected master and slave (bytes)
system.tol2bus.pkt_size_system.cpu6.dcache.mem_side::system.l2.cpu_side      2766912                       # Cumulative packet size per connected master and slave (bytes)
system.tol2bus.pkt_size_system.cpu7.icache.mem_side::system.l2.cpu_side       268672                       # Cumulative packet size per connected master and slave (bytes)
system.tol2bus.pkt_size_system.cpu7.dcache.mem_side::system.l2.cpu_side      2530816                       # Cumulative packet size per connected master and slave (bytes)
system.tol2bus.pkt_size_system.cpu8.icache.mem_side::system.l2.cpu_side       253632                       # Cumulative packet size per connected master and slave (bytes)
system.tol2bus.pkt_size_system.cpu8.dcache.mem_side::system.l2.cpu_side      2648128                       # Cumulative packet size per connected master and slave (bytes)
system.tol2bus.pkt_size::total               22915264                       # Cumulative packet size per connected master and slave (bytes)
system.tol2bus.snoops                         5188813                       # Total snoops (count)
system.tol2bus.snoop_fanout::samples          5956231                       # Request fanout histogram
system.tol2bus.snoop_fanout::mean                  17                       # Request fanout histogram
system.tol2bus.snoop_fanout::stdev                  0                       # Request fanout histogram
system.tol2bus.snoop_fanout::underflows             0      0.00%      0.00% # Request fanout histogram
system.tol2bus.snoop_fanout::0                      0      0.00%      0.00% # Request fanout histogram
system.tol2bus.snoop_fanout::1                      0      0.00%      0.00% # Request fanout histogram
system.tol2bus.snoop_fanout::2                      0      0.00%      0.00% # Request fanout histogram
system.tol2bus.snoop_fanout::3                      0      0.00%      0.00% # Request fanout histogram
system.tol2bus.snoop_fanout::4                      0      0.00%      0.00% # Request fanout histogram
system.tol2bus.snoop_fanout::5                      0      0.00%      0.00% # Request fanout histogram
system.tol2bus.snoop_fanout::6                      0      0.00%      0.00% # Request fanout histogram
system.tol2bus.snoop_fanout::7                      0      0.00%      0.00% # Request fanout histogram
system.tol2bus.snoop_fanout::8                      0      0.00%      0.00% # Request fanout histogram
system.tol2bus.snoop_fanout::9                      0      0.00%      0.00% # Request fanout histogram
system.tol2bus.snoop_fanout::10                     0      0.00%      0.00% # Request fanout histogram
system.tol2bus.snoop_fanout::11                     0      0.00%      0.00% # Request fanout histogram
system.tol2bus.snoop_fanout::12                     0      0.00%      0.00% # Request fanout histogram
system.tol2bus.snoop_fanout::13                     0      0.00%      0.00% # Request fanout histogram
system.tol2bus.snoop_fanout::14                     0      0.00%      0.00% # Request fanout histogram
system.tol2bus.snoop_fanout::15                     0      0.00%      0.00% # Request fanout histogram
system.tol2bus.snoop_fanout::16                     0      0.00%      0.00% # Request fanout histogram
system.tol2bus.snoop_fanout::17               5956231    100.00%    100.00% # Request fanout histogram
system.tol2bus.snoop_fanout::18                     0      0.00%    100.00% # Request fanout histogram
system.tol2bus.snoop_fanout::overflows              0      0.00%    100.00% # Request fanout histogram
system.tol2bus.snoop_fanout::min_value             17                       # Request fanout histogram
system.tol2bus.snoop_fanout::max_value             17                       # Request fanout histogram
system.tol2bus.snoop_fanout::total            5956231                       # Request fanout histogram
system.tol2bus.reqLayer0.occupancy         3092921940                       # Layer occupancy (ticks)
system.tol2bus.reqLayer0.utilization              7.7                       # Layer utilization (%)
system.tol2bus.respLayer0.occupancy            531499                       # Layer occupancy (ticks)
system.tol2bus.respLayer0.utilization             0.0                       # Layer utilization (%)
system.tol2bus.respLayer1.occupancy           1692491                       # Layer occupancy (ticks)
system.tol2bus.respLayer1.utilization             0.0                       # Layer utilization (%)
system.tol2bus.respLayer4.occupancy           7957900                       # Layer occupancy (ticks)
system.tol2bus.respLayer4.utilization             0.0                       # Layer utilization (%)
system.tol2bus.respLayer5.occupancy        1102117030                       # Layer occupancy (ticks)
system.tol2bus.respLayer5.utilization             2.8                       # Layer utilization (%)
system.tol2bus.respLayer8.occupancy           7262856                       # Layer occupancy (ticks)
system.tol2bus.respLayer8.utilization             0.0                       # Layer utilization (%)
system.tol2bus.respLayer9.occupancy        1179972078                       # Layer occupancy (ticks)
system.tol2bus.respLayer9.utilization             2.9                       # Layer utilization (%)
system.tol2bus.respLayer12.occupancy          7708383                       # Layer occupancy (ticks)
system.tol2bus.respLayer12.utilization            0.0                       # Layer utilization (%)
system.tol2bus.respLayer13.occupancy       1133168125                       # Layer occupancy (ticks)
system.tol2bus.respLayer13.utilization            2.8                       # Layer utilization (%)
system.tol2bus.respLayer16.occupancy          6615437                       # Layer occupancy (ticks)
system.tol2bus.respLayer16.utilization            0.0                       # Layer utilization (%)
system.tol2bus.respLayer17.occupancy       1145108579                       # Layer occupancy (ticks)
system.tol2bus.respLayer17.utilization            2.9                       # Layer utilization (%)
system.tol2bus.respLayer20.occupancy          8496485                       # Layer occupancy (ticks)
system.tol2bus.respLayer20.utilization            0.0                       # Layer utilization (%)
system.tol2bus.respLayer21.occupancy       1135457994                       # Layer occupancy (ticks)
system.tol2bus.respLayer21.utilization            2.8                       # Layer utilization (%)
system.tol2bus.respLayer24.occupancy          6218483                       # Layer occupancy (ticks)
system.tol2bus.respLayer24.utilization            0.0                       # Layer utilization (%)
system.tol2bus.respLayer25.occupancy       1187236177                       # Layer occupancy (ticks)
system.tol2bus.respLayer25.utilization            3.0                       # Layer utilization (%)
system.tol2bus.respLayer28.occupancy          6304975                       # Layer occupancy (ticks)
system.tol2bus.respLayer28.utilization            0.0                       # Layer utilization (%)
system.tol2bus.respLayer29.occupancy       1173160989                       # Layer occupancy (ticks)
system.tol2bus.respLayer29.utilization            2.9                       # Layer utilization (%)
system.tol2bus.respLayer32.occupancy          5949487                       # Layer occupancy (ticks)
system.tol2bus.respLayer32.utilization            0.0                       # Layer utilization (%)
system.tol2bus.respLayer33.occupancy        885537238                       # Layer occupancy (ticks)
system.tol2bus.respLayer33.utilization            2.2                       # Layer utilization (%)

---------- End Simulation Statistics   ----------
