
---------- Begin Simulation Statistics ----------
sim_seconds                                  0.016447                       # Number of seconds simulated
sim_ticks                                 16447110000                       # Number of ticks simulated
final_tick                                16447110000                       # Number of ticks from beginning of simulation (restored from checkpoints and never reset)
sim_freq                                 1000000000000                       # Frequency of simulated ticks
host_inst_rate                                 188230                       # Simulator instruction rate (inst/s)
host_op_rate                                   192939                       # Simulator op (including micro ops) rate (op/s)
host_tick_rate                               32644861                       # Simulator tick rate (ticks/s)
host_mem_usage                                 702208                       # Number of bytes of host memory used
host_seconds                                   503.82                       # Real time elapsed on the host
sim_insts                                    94833856                       # Number of instructions simulated
sim_ops                                      97206550                       # Number of ops (including micro ops) simulated
system.voltage_domain.voltage                       1                       # Voltage in Volts
system.clk_domain.clock                          1000                       # Clock period in ticks
system.physmem.bytes_read::cpu0.inst            22720                       # Number of bytes read from this memory
system.physmem.bytes_read::cpu0.data            66944                       # Number of bytes read from this memory
system.physmem.bytes_read::cpu1.inst             2304                       # Number of bytes read from this memory
system.physmem.bytes_read::cpu1.data           196800                       # Number of bytes read from this memory
system.physmem.bytes_read::cpu2.inst             7296                       # Number of bytes read from this memory
system.physmem.bytes_read::cpu2.data           287424                       # Number of bytes read from this memory
system.physmem.bytes_read::cpu3.inst             5312                       # Number of bytes read from this memory
system.physmem.bytes_read::cpu3.data           366144                       # Number of bytes read from this memory
system.physmem.bytes_read::cpu4.inst             6016                       # Number of bytes read from this memory
system.physmem.bytes_read::cpu4.data           276672                       # Number of bytes read from this memory
system.physmem.bytes_read::total              1237632                       # Number of bytes read from this memory
system.physmem.bytes_inst_read::cpu0.inst        22720                       # Number of instructions bytes read from this memory
system.physmem.bytes_inst_read::cpu1.inst         2304                       # Number of instructions bytes read from this memory
system.physmem.bytes_inst_read::cpu2.inst         7296                       # Number of instructions bytes read from this memory
system.physmem.bytes_inst_read::cpu3.inst         5312                       # Number of instructions bytes read from this memory
system.physmem.bytes_inst_read::cpu4.inst         6016                       # Number of instructions bytes read from this memory
system.physmem.bytes_inst_read::total           43648                       # Number of instructions bytes read from this memory
system.physmem.bytes_written::writebacks        22144                       # Number of bytes written to this memory
system.physmem.bytes_written::total             22144                       # Number of bytes written to this memory
system.physmem.num_reads::cpu0.inst               355                       # Number of read requests responded to by this memory
system.physmem.num_reads::cpu0.data              1046                       # Number of read requests responded to by this memory
system.physmem.num_reads::cpu1.inst                36                       # Number of read requests responded to by this memory
system.physmem.num_reads::cpu1.data              3075                       # Number of read requests responded to by this memory
system.physmem.num_reads::cpu2.inst               114                       # Number of read requests responded to by this memory
system.physmem.num_reads::cpu2.data              4491                       # Number of read requests responded to by this memory
system.physmem.num_reads::cpu3.inst                83                       # Number of read requests responded to by this memory
system.physmem.num_reads::cpu3.data              5721                       # Number of read requests responded to by this memory
system.physmem.num_reads::cpu4.inst                94                       # Number of read requests responded to by this memory
system.physmem.num_reads::cpu4.data              4323                       # Number of read requests responded to by this memory
system.physmem.num_reads::total                 19338                       # Number of read requests responded to by this memory
system.physmem.num_writes::writebacks             346                       # Number of write requests responded to by this memory
system.physmem.num_writes::total                  346                       # Number of write requests responded to by this memory
system.physmem.bw_read::cpu0.inst             1381398                       # Total read bandwidth from this memory (bytes/s)
system.physmem.bw_read::cpu0.data             4070259                       # Total read bandwidth from this memory (bytes/s)
system.physmem.bw_read::cpu1.inst              140085                       # Total read bandwidth from this memory (bytes/s)
system.physmem.bw_read::cpu1.data            11965628                       # Total read bandwidth from this memory (bytes/s)
system.physmem.bw_read::cpu2.inst              443604                       # Total read bandwidth from this memory (bytes/s)
system.physmem.bw_read::cpu2.data            17475654                       # Total read bandwidth from this memory (bytes/s)
system.physmem.bw_read::cpu3.inst              322975                       # Total read bandwidth from this memory (bytes/s)
system.physmem.bw_read::cpu3.data            22261905                       # Total read bandwidth from this memory (bytes/s)
system.physmem.bw_read::cpu4.inst              365779                       # Total read bandwidth from this memory (bytes/s)
system.physmem.bw_read::cpu4.data            16821922                       # Total read bandwidth from this memory (bytes/s)
system.physmem.bw_read::total                75249208                       # Total read bandwidth from this memory (bytes/s)
system.physmem.bw_inst_read::cpu0.inst        1381398                       # Instruction read bandwidth from this memory (bytes/s)
system.physmem.bw_inst_read::cpu1.inst         140085                       # Instruction read bandwidth from this memory (bytes/s)
system.physmem.bw_inst_read::cpu2.inst         443604                       # Instruction read bandwidth from this memory (bytes/s)
system.physmem.bw_inst_read::cpu3.inst         322975                       # Instruction read bandwidth from this memory (bytes/s)
system.physmem.bw_inst_read::cpu4.inst         365779                       # Instruction read bandwidth from this memory (bytes/s)
system.physmem.bw_inst_read::total            2653840                       # Instruction read bandwidth from this memory (bytes/s)
system.physmem.bw_write::writebacks           1346376                       # Write bandwidth from this memory (bytes/s)
system.physmem.bw_write::total                1346376                       # Write bandwidth from this memory (bytes/s)
system.physmem.bw_total::writebacks           1346376                       # Total bandwidth to/from this memory (bytes/s)
system.physmem.bw_total::cpu0.inst            1381398                       # Total bandwidth to/from this memory (bytes/s)
system.physmem.bw_total::cpu0.data            4070259                       # Total bandwidth to/from this memory (bytes/s)
system.physmem.bw_total::cpu1.inst             140085                       # Total bandwidth to/from this memory (bytes/s)
system.physmem.bw_total::cpu1.data           11965628                       # Total bandwidth to/from this memory (bytes/s)
system.physmem.bw_total::cpu2.inst             443604                       # Total bandwidth to/from this memory (bytes/s)
system.physmem.bw_total::cpu2.data           17475654                       # Total bandwidth to/from this memory (bytes/s)
system.physmem.bw_total::cpu3.inst             322975                       # Total bandwidth to/from this memory (bytes/s)
system.physmem.bw_total::cpu3.data           22261905                       # Total bandwidth to/from this memory (bytes/s)
system.physmem.bw_total::cpu4.inst             365779                       # Total bandwidth to/from this memory (bytes/s)
system.physmem.bw_total::cpu4.data           16821922                       # Total bandwidth to/from this memory (bytes/s)
system.physmem.bw_total::total               76595584                       # Total bandwidth to/from this memory (bytes/s)
system.cpu0.branchPred.lookups                8212223                       # Number of BP lookups
system.cpu0.branchPred.condPredicted          8207147                       # Number of conditional branches predicted
system.cpu0.branchPred.condIncorrect              605                       # Number of conditional branches incorrect
system.cpu0.branchPred.BTBLookups             8206389                       # Number of BTB lookups
system.cpu0.branchPred.BTBHits                8205973                       # Number of BTB hits
system.cpu0.branchPred.BTBCorrect                   0                       # Number of correct BTB predictions (this stat may not work properly.
system.cpu0.branchPred.BTBHitPct            99.994931                       # BTB Hit Percentage
system.cpu0.branchPred.usedRAS                   2361                       # Number of times the RAS was used to get a target.
system.cpu0.branchPred.RASInCorrect                62                       # Number of incorrect RAS predictions.
system.cpu0.dstage2_mmu.stage2_tlb.walker.walks            0                       # Table walker walks requested
system.cpu0.dstage2_mmu.stage2_tlb.walker.walkRequestOrigin_Requested::Data            0                       # Table walker requests started/completed, data/inst
system.cpu0.dstage2_mmu.stage2_tlb.walker.walkRequestOrigin_Requested::Inst            0                       # Table walker requests started/completed, data/inst
system.cpu0.dstage2_mmu.stage2_tlb.walker.walkRequestOrigin_Requested::total            0                       # Table walker requests started/completed, data/inst
system.cpu0.dstage2_mmu.stage2_tlb.walker.walkRequestOrigin_Completed::Data            0                       # Table walker requests started/completed, data/inst
system.cpu0.dstage2_mmu.stage2_tlb.walker.walkRequestOrigin_Completed::Inst            0                       # Table walker requests started/completed, data/inst
system.cpu0.dstage2_mmu.stage2_tlb.walker.walkRequestOrigin_Completed::total            0                       # Table walker requests started/completed, data/inst
system.cpu0.dstage2_mmu.stage2_tlb.walker.walkRequestOrigin::total            0                       # Table walker requests started/completed, data/inst
system.cpu0.dstage2_mmu.stage2_tlb.inst_hits            0                       # ITB inst hits
system.cpu0.dstage2_mmu.stage2_tlb.inst_misses            0                       # ITB inst misses
system.cpu0.dstage2_mmu.stage2_tlb.read_hits            0                       # DTB read hits
system.cpu0.dstage2_mmu.stage2_tlb.read_misses            0                       # DTB read misses
system.cpu0.dstage2_mmu.stage2_tlb.write_hits            0                       # DTB write hits
system.cpu0.dstage2_mmu.stage2_tlb.write_misses            0                       # DTB write misses
system.cpu0.dstage2_mmu.stage2_tlb.flush_tlb            0                       # Number of times complete TLB was flushed
system.cpu0.dstage2_mmu.stage2_tlb.flush_tlb_mva            0                       # Number of times TLB was flushed by MVA
system.cpu0.dstage2_mmu.stage2_tlb.flush_tlb_mva_asid            0                       # Number of times TLB was flushed by MVA & ASID
system.cpu0.dstage2_mmu.stage2_tlb.flush_tlb_asid            0                       # Number of times TLB was flushed by ASID
system.cpu0.dstage2_mmu.stage2_tlb.flush_entries            0                       # Number of entries that have been flushed from TLB
system.cpu0.dstage2_mmu.stage2_tlb.align_faults            0                       # Number of TLB faults due to alignment restrictions
system.cpu0.dstage2_mmu.stage2_tlb.prefetch_faults            0                       # Number of TLB faults due to prefetch
system.cpu0.dstage2_mmu.stage2_tlb.domain_faults            0                       # Number of TLB faults due to domain restrictions
system.cpu0.dstage2_mmu.stage2_tlb.perms_faults            0                       # Number of TLB faults due to permissions restrictions
system.cpu0.dstage2_mmu.stage2_tlb.read_accesses            0                       # DTB read accesses
system.cpu0.dstage2_mmu.stage2_tlb.write_accesses            0                       # DTB write accesses
system.cpu0.dstage2_mmu.stage2_tlb.inst_accesses            0                       # ITB inst accesses
system.cpu0.dstage2_mmu.stage2_tlb.hits             0                       # DTB hits
system.cpu0.dstage2_mmu.stage2_tlb.misses            0                       # DTB misses
system.cpu0.dstage2_mmu.stage2_tlb.accesses            0                       # DTB accesses
system.cpu0.dtb.walker.walks                        0                       # Table walker walks requested
system.cpu0.dtb.walker.walkRequestOrigin_Requested::Data            0                       # Table walker requests started/completed, data/inst
system.cpu0.dtb.walker.walkRequestOrigin_Requested::Inst            0                       # Table walker requests started/completed, data/inst
system.cpu0.dtb.walker.walkRequestOrigin_Requested::total            0                       # Table walker requests started/completed, data/inst
system.cpu0.dtb.walker.walkRequestOrigin_Completed::Data            0                       # Table walker requests started/completed, data/inst
system.cpu0.dtb.walker.walkRequestOrigin_Completed::Inst            0                       # Table walker requests started/completed, data/inst
system.cpu0.dtb.walker.walkRequestOrigin_Completed::total            0                       # Table walker requests started/completed, data/inst
system.cpu0.dtb.walker.walkRequestOrigin::total            0                       # Table walker requests started/completed, data/inst
system.cpu0.dtb.inst_hits                           0                       # ITB inst hits
system.cpu0.dtb.inst_misses                         0                       # ITB inst misses
system.cpu0.dtb.read_hits                           0                       # DTB read hits
system.cpu0.dtb.read_misses                         0                       # DTB read misses
system.cpu0.dtb.write_hits                          0                       # DTB write hits
system.cpu0.dtb.write_misses                        0                       # DTB write misses
system.cpu0.dtb.flush_tlb                           0                       # Number of times complete TLB was flushed
system.cpu0.dtb.flush_tlb_mva                       0                       # Number of times TLB was flushed by MVA
system.cpu0.dtb.flush_tlb_mva_asid                  0                       # Number of times TLB was flushed by MVA & ASID
system.cpu0.dtb.flush_tlb_asid                      0                       # Number of times TLB was flushed by ASID
system.cpu0.dtb.flush_entries                       0                       # Number of entries that have been flushed from TLB
system.cpu0.dtb.align_faults                        0                       # Number of TLB faults due to alignment restrictions
system.cpu0.dtb.prefetch_faults                     0                       # Number of TLB faults due to prefetch
system.cpu0.dtb.domain_faults                       0                       # Number of TLB faults due to domain restrictions
system.cpu0.dtb.perms_faults                        0                       # Number of TLB faults due to permissions restrictions
system.cpu0.dtb.read_accesses                       0                       # DTB read accesses
system.cpu0.dtb.write_accesses                      0                       # DTB write accesses
system.cpu0.dtb.inst_accesses                       0                       # ITB inst accesses
system.cpu0.dtb.hits                                0                       # DTB hits
system.cpu0.dtb.misses                              0                       # DTB misses
system.cpu0.dtb.accesses                            0                       # DTB accesses
system.cpu0.istage2_mmu.stage2_tlb.walker.walks            0                       # Table walker walks requested
system.cpu0.istage2_mmu.stage2_tlb.walker.walkRequestOrigin_Requested::Data            0                       # Table walker requests started/completed, data/inst
system.cpu0.istage2_mmu.stage2_tlb.walker.walkRequestOrigin_Requested::Inst            0                       # Table walker requests started/completed, data/inst
system.cpu0.istage2_mmu.stage2_tlb.walker.walkRequestOrigin_Requested::total            0                       # Table walker requests started/completed, data/inst
system.cpu0.istage2_mmu.stage2_tlb.walker.walkRequestOrigin_Completed::Data            0                       # Table walker requests started/completed, data/inst
system.cpu0.istage2_mmu.stage2_tlb.walker.walkRequestOrigin_Completed::Inst            0                       # Table walker requests started/completed, data/inst
system.cpu0.istage2_mmu.stage2_tlb.walker.walkRequestOrigin_Completed::total            0                       # Table walker requests started/completed, data/inst
system.cpu0.istage2_mmu.stage2_tlb.walker.walkRequestOrigin::total            0                       # Table walker requests started/completed, data/inst
system.cpu0.istage2_mmu.stage2_tlb.inst_hits            0                       # ITB inst hits
system.cpu0.istage2_mmu.stage2_tlb.inst_misses            0                       # ITB inst misses
system.cpu0.istage2_mmu.stage2_tlb.read_hits            0                       # DTB read hits
system.cpu0.istage2_mmu.stage2_tlb.read_misses            0                       # DTB read misses
system.cpu0.istage2_mmu.stage2_tlb.write_hits            0                       # DTB write hits
system.cpu0.istage2_mmu.stage2_tlb.write_misses            0                       # DTB write misses
system.cpu0.istage2_mmu.stage2_tlb.flush_tlb            0                       # Number of times complete TLB was flushed
system.cpu0.istage2_mmu.stage2_tlb.flush_tlb_mva            0                       # Number of times TLB was flushed by MVA
system.cpu0.istage2_mmu.stage2_tlb.flush_tlb_mva_asid            0                       # Number of times TLB was flushed by MVA & ASID
system.cpu0.istage2_mmu.stage2_tlb.flush_tlb_asid            0                       # Number of times TLB was flushed by ASID
system.cpu0.istage2_mmu.stage2_tlb.flush_entries            0                       # Number of entries that have been flushed from TLB
system.cpu0.istage2_mmu.stage2_tlb.align_faults            0                       # Number of TLB faults due to alignment restrictions
system.cpu0.istage2_mmu.stage2_tlb.prefetch_faults            0                       # Number of TLB faults due to prefetch
system.cpu0.istage2_mmu.stage2_tlb.domain_faults            0                       # Number of TLB faults due to domain restrictions
system.cpu0.istage2_mmu.stage2_tlb.perms_faults            0                       # Number of TLB faults due to permissions restrictions
system.cpu0.istage2_mmu.stage2_tlb.read_accesses            0                       # DTB read accesses
system.cpu0.istage2_mmu.stage2_tlb.write_accesses            0                       # DTB write accesses
system.cpu0.istage2_mmu.stage2_tlb.inst_accesses            0                       # ITB inst accesses
system.cpu0.istage2_mmu.stage2_tlb.hits             0                       # DTB hits
system.cpu0.istage2_mmu.stage2_tlb.misses            0                       # DTB misses
system.cpu0.istage2_mmu.stage2_tlb.accesses            0                       # DTB accesses
system.cpu0.itb.walker.walks                        0                       # Table walker walks requested
system.cpu0.itb.walker.walkRequestOrigin_Requested::Data            0                       # Table walker requests started/completed, data/inst
system.cpu0.itb.walker.walkRequestOrigin_Requested::Inst            0                       # Table walker requests started/completed, data/inst
system.cpu0.itb.walker.walkRequestOrigin_Requested::total            0                       # Table walker requests started/completed, data/inst
system.cpu0.itb.walker.walkRequestOrigin_Completed::Data            0                       # Table walker requests started/completed, data/inst
system.cpu0.itb.walker.walkRequestOrigin_Completed::Inst            0                       # Table walker requests started/completed, data/inst
system.cpu0.itb.walker.walkRequestOrigin_Completed::total            0                       # Table walker requests started/completed, data/inst
system.cpu0.itb.walker.walkRequestOrigin::total            0                       # Table walker requests started/completed, data/inst
system.cpu0.itb.inst_hits                           0                       # ITB inst hits
system.cpu0.itb.inst_misses                         0                       # ITB inst misses
system.cpu0.itb.read_hits                           0                       # DTB read hits
system.cpu0.itb.read_misses                         0                       # DTB read misses
system.cpu0.itb.write_hits                          0                       # DTB write hits
system.cpu0.itb.write_misses                        0                       # DTB write misses
system.cpu0.itb.flush_tlb                           0                       # Number of times complete TLB was flushed
system.cpu0.itb.flush_tlb_mva                       0                       # Number of times TLB was flushed by MVA
system.cpu0.itb.flush_tlb_mva_asid                  0                       # Number of times TLB was flushed by MVA & ASID
system.cpu0.itb.flush_tlb_asid                      0                       # Number of times TLB was flushed by ASID
system.cpu0.itb.flush_entries                       0                       # Number of entries that have been flushed from TLB
system.cpu0.itb.align_faults                        0                       # Number of TLB faults due to alignment restrictions
system.cpu0.itb.prefetch_faults                     0                       # Number of TLB faults due to prefetch
system.cpu0.itb.domain_faults                       0                       # Number of TLB faults due to domain restrictions
system.cpu0.itb.perms_faults                        0                       # Number of TLB faults due to permissions restrictions
system.cpu0.itb.read_accesses                       0                       # DTB read accesses
system.cpu0.itb.write_accesses                      0                       # DTB write accesses
system.cpu0.itb.inst_accesses                       0                       # ITB inst accesses
system.cpu0.itb.hits                                0                       # DTB hits
system.cpu0.itb.misses                              0                       # DTB misses
system.cpu0.itb.accesses                            0                       # DTB accesses
system.cpu0.workload.num_syscalls               47788                       # Number of system calls
system.cpu0.numCycles                        16447111                       # number of cpu cycles simulated
system.cpu0.numWorkItemsStarted                     0                       # number of work items this cpu started
system.cpu0.numWorkItemsCompleted                   0                       # number of work items this cpu completed
system.cpu0.fetch.icacheStallCycles             13442                       # Number of cycles fetch is stalled on an Icache miss
system.cpu0.fetch.Insts                      41051789                       # Number of instructions fetch has processed
system.cpu0.fetch.Branches                    8212223                       # Number of branches that fetch encountered
system.cpu0.fetch.predictedBranches           8208334                       # Number of branches that fetch has predicted taken
system.cpu0.fetch.Cycles                     16424937                       # Number of cycles fetch has run and was not squashing or blocked
system.cpu0.fetch.SquashCycles                   1329                       # Number of cycles fetch has spent squashing
system.cpu0.fetch.PendingTrapStallCycles          154                       # Number of stall cycles due to pending traps
system.cpu0.fetch.CacheLines                     6794                       # Number of cache lines fetched
system.cpu0.fetch.IcacheSquashes                  260                       # Number of outstanding Icache misses that were squashed
system.cpu0.fetch.rateDist::samples          16439197                       # Number of instructions fetched each cycle (Total)
system.cpu0.fetch.rateDist::mean             2.497460                       # Number of instructions fetched each cycle (Total)
system.cpu0.fetch.rateDist::stdev            0.506600                       # Number of instructions fetched each cycle (Total)
system.cpu0.fetch.rateDist::underflows              0      0.00%      0.00% # Number of instructions fetched each cycle (Total)
system.cpu0.fetch.rateDist::0                   17270      0.11%      0.11% # Number of instructions fetched each cycle (Total)
system.cpu0.fetch.rateDist::1                    2853      0.02%      0.12% # Number of instructions fetched each cycle (Total)
system.cpu0.fetch.rateDist::2                 8203830     49.90%     50.03% # Number of instructions fetched each cycle (Total)
system.cpu0.fetch.rateDist::3                 8215244     49.97%    100.00% # Number of instructions fetched each cycle (Total)
system.cpu0.fetch.rateDist::overflows               0      0.00%    100.00% # Number of instructions fetched each cycle (Total)
system.cpu0.fetch.rateDist::min_value               0                       # Number of instructions fetched each cycle (Total)
system.cpu0.fetch.rateDist::max_value               3                       # Number of instructions fetched each cycle (Total)
system.cpu0.fetch.rateDist::total            16439197                       # Number of instructions fetched each cycle (Total)
system.cpu0.fetch.branchRate                 0.499311                       # Number of branch fetches per cycle
system.cpu0.fetch.rate                       2.495988                       # Number of inst fetches per cycle
system.cpu0.decode.IdleCycles                   12250                       # Number of cycles decode is idle
system.cpu0.decode.BlockedCycles                 5601                       # Number of cycles decode is blocked
system.cpu0.decode.RunCycles                 16420251                       # Number of cycles decode is running
system.cpu0.decode.UnblockCycles                  631                       # Number of cycles decode is unblocking
system.cpu0.decode.SquashCycles                   464                       # Number of cycles decode is squashing
system.cpu0.decode.BranchResolved                2442                       # Number of times decode resolved a branch
system.cpu0.decode.BranchMispred                  206                       # Number of times decode detected a branch misprediction
system.cpu0.decode.DecodedInsts              41053560                       # Number of instructions handled by decode
system.cpu0.decode.SquashedInsts                  450                       # Number of squashed instructions handled by decode
system.cpu0.rename.SquashCycles                   464                       # Number of cycles rename is squashing
system.cpu0.rename.IdleCycles                   12836                       # Number of cycles rename is idle
system.cpu0.rename.BlockCycles                    570                       # Number of cycles rename is blocking
system.cpu0.rename.serializeStallCycles          2299                       # count of cycles rename stalled for serializing inst
system.cpu0.rename.RunCycles                 16420187                       # Number of cycles rename is running
system.cpu0.rename.UnblockCycles                 2841                       # Number of cycles rename is unblocking
system.cpu0.rename.RenamedInsts              41052816                       # Number of instructions processed by rename
system.cpu0.rename.IQFullEvents                    15                       # Number of times rename has blocked due to IQ full
system.cpu0.rename.LQFullEvents                     9                       # Number of times rename has blocked due to LQ full
system.cpu0.rename.SQFullEvents                  2672                       # Number of times rename has blocked due to SQ full
system.cpu0.rename.RenamedOperands           41054328                       # Number of destination operands rename has renamed
system.cpu0.rename.RenameLookups            188829185                       # Number of register rename lookups that rename has made
system.cpu0.rename.int_rename_lookups        41054089                       # Number of integer rename lookups
system.cpu0.rename.fp_rename_lookups               16                       # Number of floating rename lookups
system.cpu0.rename.CommittedMaps             41048484                       # Number of HB maps that are committed
system.cpu0.rename.UndoneMaps                    5844                       # Number of HB maps that are undone due to squashing
system.cpu0.rename.serializingInsts                59                       # count of serializing insts renamed
system.cpu0.rename.tempSerializingInsts            59                       # count of temporary serializing insts renamed
system.cpu0.rename.skidInsts                     1214                       # count of insts added to the skid buffer
system.cpu0.memDep0.insertedLoads            16406129                       # Number of loads inserted to the mem dependence unit.
system.cpu0.memDep0.insertedStores            8206713                       # Number of stores inserted to the mem dependence unit.
system.cpu0.memDep0.conflictingLoads          8200722                       # Number of conflicting loads.
system.cpu0.memDep0.conflictingStores         8200686                       # Number of conflicting stores.
system.cpu0.iq.iqInstsAdded                  41051499                       # Number of instructions added to the IQ (excludes non-spec)
system.cpu0.iq.iqNonSpecInstsAdded                 84                       # Number of non-speculative instructions added to the IQ
system.cpu0.iq.iqInstsIssued                 41049900                       # Number of instructions issued
system.cpu0.iq.iqSquashedInstsIssued              169                       # Number of squashed instructions issued
system.cpu0.iq.iqSquashedInstsExamined           4122                       # Number of squashed instructions iterated over during squash; mainly for profiling
system.cpu0.iq.iqSquashedOperandsExamined        10099                       # Number of squashed operands that are examined and possibly removed from graph
system.cpu0.iq.iqSquashedNonSpecRemoved             7                       # Number of squashed non-spec instructions that were removed
system.cpu0.iq.issued_per_cycle::samples     16439197                       # Number of insts issued each cycle
system.cpu0.iq.issued_per_cycle::mean        2.497075                       # Number of insts issued each cycle
system.cpu0.iq.issued_per_cycle::stdev       0.706098                       # Number of insts issued each cycle
system.cpu0.iq.issued_per_cycle::underflows            0      0.00%      0.00% # Number of insts issued each cycle
system.cpu0.iq.issued_per_cycle::0              15725      0.10%      0.10% # Number of insts issued each cycle
system.cpu0.iq.issued_per_cycle::1            1996077     12.14%     12.24% # Number of insts issued each cycle
system.cpu0.iq.issued_per_cycle::2            4228362     25.72%     37.96% # Number of insts issued each cycle
system.cpu0.iq.issued_per_cycle::3           10199033     62.04%    100.00% # Number of insts issued each cycle
system.cpu0.iq.issued_per_cycle::overflows            0      0.00%    100.00% # Number of insts issued each cycle
system.cpu0.iq.issued_per_cycle::min_value            0                       # Number of insts issued each cycle
system.cpu0.iq.issued_per_cycle::max_value            3                       # Number of insts issued each cycle
system.cpu0.iq.issued_per_cycle::total       16439197                       # Number of insts issued each cycle
system.cpu0.iq.fu_full::No_OpClass                  0                       # attempts to use FU when none available
system.cpu0.iq.fu_full::IntAlu                      0                       # attempts to use FU when none available
system.cpu0.iq.fu_full::IntMult                     0                       # attempts to use FU when none available
system.cpu0.iq.fu_full::IntDiv                      0                       # attempts to use FU when none available
system.cpu0.iq.fu_full::FloatAdd                    0                       # attempts to use FU when none available
system.cpu0.iq.fu_full::FloatCmp                    0                       # attempts to use FU when none available
system.cpu0.iq.fu_full::FloatCvt                    0                       # attempts to use FU when none available
system.cpu0.iq.fu_full::FloatMult                   0                       # attempts to use FU when none available
system.cpu0.iq.fu_full::FloatDiv                    0                       # attempts to use FU when none available
system.cpu0.iq.fu_full::FloatSqrt                   0                       # attempts to use FU when none available
system.cpu0.iq.fu_full::SimdAdd                     0                       # attempts to use FU when none available
system.cpu0.iq.fu_full::SimdAddAcc                  0                       # attempts to use FU when none available
system.cpu0.iq.fu_full::SimdAlu                     0                       # attempts to use FU when none available
system.cpu0.iq.fu_full::SimdCmp                     0                       # attempts to use FU when none available
system.cpu0.iq.fu_full::SimdCvt                     0                       # attempts to use FU when none available
system.cpu0.iq.fu_full::SimdMisc                    0                       # attempts to use FU when none available
system.cpu0.iq.fu_full::SimdMult                    0                       # attempts to use FU when none available
system.cpu0.iq.fu_full::SimdMultAcc                 0                       # attempts to use FU when none available
system.cpu0.iq.fu_full::SimdShift                   0                       # attempts to use FU when none available
system.cpu0.iq.fu_full::SimdShiftAcc                0                       # attempts to use FU when none available
system.cpu0.iq.fu_full::SimdSqrt                    0                       # attempts to use FU when none available
system.cpu0.iq.fu_full::SimdFloatAdd                0                       # attempts to use FU when none available
system.cpu0.iq.fu_full::SimdFloatAlu                0                       # attempts to use FU when none available
system.cpu0.iq.fu_full::SimdFloatCmp                0                       # attempts to use FU when none available
system.cpu0.iq.fu_full::SimdFloatCvt                0                       # attempts to use FU when none available
system.cpu0.iq.fu_full::SimdFloatDiv                0                       # attempts to use FU when none available
system.cpu0.iq.fu_full::SimdFloatMisc               0                       # attempts to use FU when none available
system.cpu0.iq.fu_full::SimdFloatMult               0                       # attempts to use FU when none available
system.cpu0.iq.fu_full::SimdFloatMultAcc            0                       # attempts to use FU when none available
system.cpu0.iq.fu_full::SimdFloatSqrt               0                       # attempts to use FU when none available
system.cpu0.iq.fu_full::MemRead                     0                       # attempts to use FU when none available
system.cpu0.iq.fu_full::MemWrite                    0                       # attempts to use FU when none available
system.cpu0.iq.fu_full::IprAccess                   0                       # attempts to use FU when none available
system.cpu0.iq.fu_full::InstPrefetch                0                       # attempts to use FU when none available
system.cpu0.iq.FU_type_0::No_OpClass                0      0.00%      0.00% # Type of FU issued
system.cpu0.iq.FU_type_0::IntAlu             16437494     40.04%     40.04% # Type of FU issued
system.cpu0.iq.FU_type_0::IntMult                   6      0.00%     40.04% # Type of FU issued
system.cpu0.iq.FU_type_0::IntDiv                    0      0.00%     40.04% # Type of FU issued
system.cpu0.iq.FU_type_0::FloatAdd                  0      0.00%     40.04% # Type of FU issued
system.cpu0.iq.FU_type_0::FloatCmp                  0      0.00%     40.04% # Type of FU issued
system.cpu0.iq.FU_type_0::FloatCvt                  0      0.00%     40.04% # Type of FU issued
system.cpu0.iq.FU_type_0::FloatMult                 0      0.00%     40.04% # Type of FU issued
system.cpu0.iq.FU_type_0::FloatDiv                  0      0.00%     40.04% # Type of FU issued
system.cpu0.iq.FU_type_0::FloatSqrt                 0      0.00%     40.04% # Type of FU issued
system.cpu0.iq.FU_type_0::SimdAdd                   0      0.00%     40.04% # Type of FU issued
system.cpu0.iq.FU_type_0::SimdAddAcc                0      0.00%     40.04% # Type of FU issued
system.cpu0.iq.FU_type_0::SimdAlu                   0      0.00%     40.04% # Type of FU issued
system.cpu0.iq.FU_type_0::SimdCmp                   0      0.00%     40.04% # Type of FU issued
system.cpu0.iq.FU_type_0::SimdCvt                   0      0.00%     40.04% # Type of FU issued
system.cpu0.iq.FU_type_0::SimdMisc                  0      0.00%     40.04% # Type of FU issued
system.cpu0.iq.FU_type_0::SimdMult                  0      0.00%     40.04% # Type of FU issued
system.cpu0.iq.FU_type_0::SimdMultAcc               0      0.00%     40.04% # Type of FU issued
system.cpu0.iq.FU_type_0::SimdShift                 0      0.00%     40.04% # Type of FU issued
system.cpu0.iq.FU_type_0::SimdShiftAcc              0      0.00%     40.04% # Type of FU issued
system.cpu0.iq.FU_type_0::SimdSqrt                  0      0.00%     40.04% # Type of FU issued
system.cpu0.iq.FU_type_0::SimdFloatAdd              0      0.00%     40.04% # Type of FU issued
system.cpu0.iq.FU_type_0::SimdFloatAlu              0      0.00%     40.04% # Type of FU issued
system.cpu0.iq.FU_type_0::SimdFloatCmp              0      0.00%     40.04% # Type of FU issued
system.cpu0.iq.FU_type_0::SimdFloatCvt              0      0.00%     40.04% # Type of FU issued
system.cpu0.iq.FU_type_0::SimdFloatDiv              0      0.00%     40.04% # Type of FU issued
system.cpu0.iq.FU_type_0::SimdFloatMisc             3      0.00%     40.04% # Type of FU issued
system.cpu0.iq.FU_type_0::SimdFloatMult             0      0.00%     40.04% # Type of FU issued
system.cpu0.iq.FU_type_0::SimdFloatMultAcc            0      0.00%     40.04% # Type of FU issued
system.cpu0.iq.FU_type_0::SimdFloatSqrt             0      0.00%     40.04% # Type of FU issued
system.cpu0.iq.FU_type_0::MemRead            16405842     39.97%     80.01% # Type of FU issued
system.cpu0.iq.FU_type_0::MemWrite            8206555     19.99%    100.00% # Type of FU issued
system.cpu0.iq.FU_type_0::IprAccess                 0      0.00%    100.00% # Type of FU issued
system.cpu0.iq.FU_type_0::InstPrefetch              0      0.00%    100.00% # Type of FU issued
system.cpu0.iq.FU_type_0::total              41049900                       # Type of FU issued
system.cpu0.iq.rate                          2.495873                       # Inst issue rate
system.cpu0.iq.fu_busy_cnt                          0                       # FU busy when requested
system.cpu0.iq.fu_busy_rate                         0                       # FU busy rate (busy events/executed inst)
system.cpu0.iq.int_inst_queue_reads          98539134                       # Number of integer instruction queue reads
system.cpu0.iq.int_inst_queue_writes         41055734                       # Number of integer instruction queue writes
system.cpu0.iq.int_inst_queue_wakeup_accesses     41049135                       # Number of integer instruction queue wakeup accesses
system.cpu0.iq.fp_inst_queue_reads                 32                       # Number of floating instruction queue reads
system.cpu0.iq.fp_inst_queue_writes                16                       # Number of floating instruction queue writes
system.cpu0.iq.fp_inst_queue_wakeup_accesses           16                       # Number of floating instruction queue wakeup accesses
system.cpu0.iq.int_alu_accesses              41049884                       # Number of integer alu accesses
system.cpu0.iq.fp_alu_accesses                     16                       # Number of floating point alu accesses
system.cpu0.iew.lsq.thread0.forwLoads         8200758                       # Number of loads that had data forwarded from stores
system.cpu0.iew.lsq.thread0.invAddrLoads            0                       # Number of loads ignored due to an invalid address
system.cpu0.iew.lsq.thread0.squashedLoads         1064                       # Number of loads squashed
system.cpu0.iew.lsq.thread0.ignoredResponses            3                       # Number of memory responses ignored because the instruction is squashed
system.cpu0.iew.lsq.thread0.memOrderViolation           45                       # Number of memory ordering violations
system.cpu0.iew.lsq.thread0.squashedStores          389                       # Number of stores squashed
system.cpu0.iew.lsq.thread0.invAddrSwpfs            0                       # Number of software prefetches ignored due to an invalid address
system.cpu0.iew.lsq.thread0.blockedLoads            0                       # Number of blocked loads due to partial load-store forwarding
system.cpu0.iew.lsq.thread0.rescheduledLoads            3                       # Number of loads that were rescheduled
system.cpu0.iew.lsq.thread0.cacheBlocked            9                       # Number of times an access to memory failed due to the cache being blocked
system.cpu0.iew.iewIdleCycles                       0                       # Number of cycles IEW is idle
system.cpu0.iew.iewSquashCycles                   464                       # Number of cycles IEW is squashing
system.cpu0.iew.iewBlockCycles                    435                       # Number of cycles IEW is blocking
system.cpu0.iew.iewUnblockCycles                  133                       # Number of cycles IEW is unblocking
system.cpu0.iew.iewDispatchedInsts           41051601                       # Number of instructions dispatched to IQ
system.cpu0.iew.iewDispSquashedInsts              248                       # Number of squashed instructions skipped by dispatch
system.cpu0.iew.iewDispLoadInsts             16406129                       # Number of dispatched load instructions
system.cpu0.iew.iewDispStoreInsts             8206713                       # Number of dispatched store instructions
system.cpu0.iew.iewDispNonSpecInsts                54                       # Number of dispatched non-speculative instructions
system.cpu0.iew.iewIQFullEvents                    12                       # Number of times the IQ has become full, causing a stall
system.cpu0.iew.iewLSQFullEvents                    0                       # Number of times the LSQ has become full, causing a stall
system.cpu0.iew.memOrderViolationEvents            45                       # Number of memory order violations
system.cpu0.iew.predictedTakenIncorrect           123                       # Number of branches that were predicted taken incorrectly
system.cpu0.iew.predictedNotTakenIncorrect          311                       # Number of branches that were predicted not taken incorrectly
system.cpu0.iew.branchMispredicts                 434                       # Number of branch mispredicts detected at execute
system.cpu0.iew.iewExecutedInsts             41049457                       # Number of executed instructions
system.cpu0.iew.iewExecLoadInsts             16405731                       # Number of load instructions executed
system.cpu0.iew.iewExecSquashedInsts              443                       # Number of squashed instructions skipped in execute
system.cpu0.iew.exec_swp                            0                       # number of swp insts executed
system.cpu0.iew.exec_nop                           18                       # number of nop insts executed
system.cpu0.iew.exec_refs                    24612198                       # number of memory reference insts executed
system.cpu0.iew.exec_branches                 8210957                       # Number of branches executed
system.cpu0.iew.exec_forward_branches            4986                       # Number of forward branches executed
system.cpu0.iew.exec_backward_branches        8203602                       # Number of backward branches executed
system.cpu0.iew.exec_taken_forward_branches         2383                       # Number of forward branches executed that is taken
system.cpu0.iew.exec_nottaken_forward_branches         2603                       # Number of forward branches executed that is not taken
system.cpu0.iew.exec_taken_backward_branches      8203352                       # Number of backward branches executed that is taken
system.cpu0.iew.exec_nottaken_backward_branches          250                       # Number of backward branches executed that is not taken
system.cpu0.iew.exec_stores                   8206467                       # Number of stores executed
system.cpu0.iew.exec_rate                    2.495846                       # Inst execution rate
system.cpu0.iew.wb_sent                      41049223                       # cumulative count of insts sent to commit
system.cpu0.iew.wb_count                     41049151                       # cumulative count of insts written-back
system.cpu0.iew.wb_producers                 24625103                       # num instructions producing a value
system.cpu0.iew.wb_consumers                 24635969                       # num instructions consuming a value
system.cpu0.iew.wb_penalized                        0                       # number of instrctions required to write to 'other' IQ
system.cpu0.iew.wb_rate                      2.495827                       # insts written-back per cycle
system.cpu0.iew.wb_fanout                    0.999559                       # average fanout of values written-back
system.cpu0.iew.wb_penalized_rate                   0                       # fraction of instructions written-back that wrote to 'other' IQ
system.cpu0.commit.commitSquashedInsts           4139                       # The number of squashed insts skipped by commit
system.cpu0.commit.commitNonSpecStalls             77                       # The number of times commit has been forced to stall to communicate backwards
system.cpu0.commit.branchMispredicts              405                       # The number of times a branch was mispredicted
system.cpu0.commit.committed_per_cycle::samples     16438429                       # Number of insts commited each cycle
system.cpu0.commit.committed_per_cycle::mean     2.497043                       # Number of insts commited each cycle
system.cpu0.commit.committed_per_cycle::stdev     1.579627                       # Number of insts commited each cycle
system.cpu0.commit.committed_per_cycle::underflows            0      0.00%      0.00% # Number of insts commited each cycle
system.cpu0.commit.committed_per_cycle::0        16643      0.10%      0.10% # Number of insts commited each cycle
system.cpu0.commit.committed_per_cycle::1      8209282     49.94%     50.04% # Number of insts commited each cycle
system.cpu0.commit.committed_per_cycle::2         3347      0.02%     50.06% # Number of insts commited each cycle
system.cpu0.commit.committed_per_cycle::3      1995099     12.14%     62.20% # Number of insts commited each cycle
system.cpu0.commit.committed_per_cycle::4      4224600     25.70%     87.90% # Number of insts commited each cycle
system.cpu0.commit.committed_per_cycle::5      1989212     12.10%    100.00% # Number of insts commited each cycle
system.cpu0.commit.committed_per_cycle::6           86      0.00%    100.00% # Number of insts commited each cycle
system.cpu0.commit.committed_per_cycle::7           68      0.00%    100.00% # Number of insts commited each cycle
system.cpu0.commit.committed_per_cycle::8           92      0.00%    100.00% # Number of insts commited each cycle
system.cpu0.commit.committed_per_cycle::overflows            0      0.00%    100.00% # Number of insts commited each cycle
system.cpu0.commit.committed_per_cycle::min_value            0                       # Number of insts commited each cycle
system.cpu0.commit.committed_per_cycle::max_value            8                       # Number of insts commited each cycle
system.cpu0.commit.committed_per_cycle::total     16438429                       # Number of insts commited each cycle
system.cpu0.commit.committedInsts            41044015                       # Number of instructions committed
system.cpu0.commit.committedOps              41047461                       # Number of ops (including micro ops) committed
system.cpu0.commit.swp_count                        0                       # Number of s/w prefetches committed
system.cpu0.commit.refs                      24611389                       # Number of memory references committed
system.cpu0.commit.loads                     16405065                       # Number of loads committed
system.cpu0.commit.membars                         30                       # Number of memory barriers committed
system.cpu0.commit.branches                   8210664                       # Number of branches committed
system.cpu0.commit.fp_insts                        16                       # Number of committed floating point instructions.
system.cpu0.commit.int_insts                 32841301                       # Number of committed integer instructions.
system.cpu0.commit.function_calls                2208                       # Number of function calls committed.
system.cpu0.commit.op_class_0::No_OpClass            0      0.00%      0.00% # Class of committed instruction
system.cpu0.commit.op_class_0::IntAlu        16436063     40.04%     40.04% # Class of committed instruction
system.cpu0.commit.op_class_0::IntMult              6      0.00%     40.04% # Class of committed instruction
system.cpu0.commit.op_class_0::IntDiv               0      0.00%     40.04% # Class of committed instruction
system.cpu0.commit.op_class_0::FloatAdd             0      0.00%     40.04% # Class of committed instruction
system.cpu0.commit.op_class_0::FloatCmp             0      0.00%     40.04% # Class of committed instruction
system.cpu0.commit.op_class_0::FloatCvt             0      0.00%     40.04% # Class of committed instruction
system.cpu0.commit.op_class_0::FloatMult            0      0.00%     40.04% # Class of committed instruction
system.cpu0.commit.op_class_0::FloatDiv             0      0.00%     40.04% # Class of committed instruction
system.cpu0.commit.op_class_0::FloatSqrt            0      0.00%     40.04% # Class of committed instruction
system.cpu0.commit.op_class_0::SimdAdd              0      0.00%     40.04% # Class of committed instruction
system.cpu0.commit.op_class_0::SimdAddAcc            0      0.00%     40.04% # Class of committed instruction
system.cpu0.commit.op_class_0::SimdAlu              0      0.00%     40.04% # Class of committed instruction
system.cpu0.commit.op_class_0::SimdCmp              0      0.00%     40.04% # Class of committed instruction
system.cpu0.commit.op_class_0::SimdCvt              0      0.00%     40.04% # Class of committed instruction
system.cpu0.commit.op_class_0::SimdMisc             0      0.00%     40.04% # Class of committed instruction
system.cpu0.commit.op_class_0::SimdMult             0      0.00%     40.04% # Class of committed instruction
system.cpu0.commit.op_class_0::SimdMultAcc            0      0.00%     40.04% # Class of committed instruction
system.cpu0.commit.op_class_0::SimdShift            0      0.00%     40.04% # Class of committed instruction
system.cpu0.commit.op_class_0::SimdShiftAcc            0      0.00%     40.04% # Class of committed instruction
system.cpu0.commit.op_class_0::SimdSqrt             0      0.00%     40.04% # Class of committed instruction
system.cpu0.commit.op_class_0::SimdFloatAdd            0      0.00%     40.04% # Class of committed instruction
system.cpu0.commit.op_class_0::SimdFloatAlu            0      0.00%     40.04% # Class of committed instruction
system.cpu0.commit.op_class_0::SimdFloatCmp            0      0.00%     40.04% # Class of committed instruction
system.cpu0.commit.op_class_0::SimdFloatCvt            0      0.00%     40.04% # Class of committed instruction
system.cpu0.commit.op_class_0::SimdFloatDiv            0      0.00%     40.04% # Class of committed instruction
system.cpu0.commit.op_class_0::SimdFloatMisc            3      0.00%     40.04% # Class of committed instruction
system.cpu0.commit.op_class_0::SimdFloatMult            0      0.00%     40.04% # Class of committed instruction
system.cpu0.commit.op_class_0::SimdFloatMultAcc            0      0.00%     40.04% # Class of committed instruction
system.cpu0.commit.op_class_0::SimdFloatSqrt            0      0.00%     40.04% # Class of committed instruction
system.cpu0.commit.op_class_0::MemRead       16405065     39.97%     80.01% # Class of committed instruction
system.cpu0.commit.op_class_0::MemWrite       8206324     19.99%    100.00% # Class of committed instruction
system.cpu0.commit.op_class_0::IprAccess            0      0.00%    100.00% # Class of committed instruction
system.cpu0.commit.op_class_0::InstPrefetch            0      0.00%    100.00% # Class of committed instruction
system.cpu0.commit.op_class_0::total         41047461                       # Class of committed instruction
system.cpu0.commit.bw_lim_events                   92                       # number cycles where commit BW limit reached
system.cpu0.rob.rob_reads                    57489728                       # The number of ROB reads
system.cpu0.rob.rob_writes                   82103975                       # The number of ROB writes
system.cpu0.timesIdled                            258                       # Number of times that the entire CPU went into an idle state and unscheduled itself
system.cpu0.idleCycles                           7914                       # Total number of cycles that the CPU has spent unscheduled due to idling
system.cpu0.committedInsts                   41044015                       # Number of Instructions Simulated
system.cpu0.committedOps                     41047461                       # Number of Ops (including micro ops) Simulated
system.cpu0.cpi                              0.400719                       # CPI: Cycles Per Instruction
system.cpu0.cpi_total                        0.400719                       # CPI: Total CPI of All Threads
system.cpu0.ipc                              2.495515                       # IPC: Instructions Per Cycle
system.cpu0.ipc_total                        2.495515                       # IPC: Total IPC of All Threads
system.cpu0.int_regfile_reads                41048047                       # number of integer regfile reads
system.cpu0.int_regfile_writes               16428255                       # number of integer regfile writes
system.cpu0.fp_regfile_reads                      656                       # number of floating regfile reads
system.cpu0.cc_regfile_reads                172364592                       # number of cc regfile reads
system.cpu0.cc_regfile_writes                24621940                       # number of cc regfile writes
system.cpu0.misc_regfile_reads               25243041                       # number of misc regfile reads
system.cpu0.misc_regfile_writes                    60                       # number of misc regfile writes
system.cpu0.dcache.tags.replacements              599                       # number of replacements
system.cpu0.dcache.tags.tagsinuse          195.510698                       # Cycle average of tags in use
system.cpu0.dcache.tags.total_refs           16405284                       # Total number of references to valid blocks.
system.cpu0.dcache.tags.sampled_refs              809                       # Sample count of references to valid blocks.
system.cpu0.dcache.tags.avg_refs         20278.472188                       # Average number of references to valid blocks.
system.cpu0.dcache.tags.warmup_cycle         25969000                       # Cycle when the warmup percentage was hit.
system.cpu0.dcache.tags.occ_blocks::cpu0.data   195.510698                       # Average occupied blocks per requestor
system.cpu0.dcache.tags.occ_percent::cpu0.data     0.381857                       # Average percentage of cache occupancy
system.cpu0.dcache.tags.occ_percent::total     0.381857                       # Average percentage of cache occupancy
system.cpu0.dcache.tags.occ_task_id_blocks::1024          210                       # Occupied blocks per task id
system.cpu0.dcache.tags.age_task_id_blocks_1024::0           26                       # Occupied blocks per task id
system.cpu0.dcache.tags.age_task_id_blocks_1024::4          184                       # Occupied blocks per task id
system.cpu0.dcache.tags.occ_task_id_percent::1024     0.410156                       # Percentage of cache occupancy per task id
system.cpu0.dcache.tags.tag_accesses         32823340                       # Number of tag accesses
system.cpu0.dcache.tags.data_accesses        32823340                       # Number of data accesses
system.cpu0.dcache.ReadReq_hits::cpu0.data      8204529                       # number of ReadReq hits
system.cpu0.dcache.ReadReq_hits::total        8204529                       # number of ReadReq hits
system.cpu0.dcache.WriteReq_hits::cpu0.data      8201787                       # number of WriteReq hits
system.cpu0.dcache.WriteReq_hits::total       8201787                       # number of WriteReq hits
system.cpu0.dcache.LoadLockedReq_hits::cpu0.data           25                       # number of LoadLockedReq hits
system.cpu0.dcache.LoadLockedReq_hits::total           25                       # number of LoadLockedReq hits
system.cpu0.dcache.StoreCondReq_hits::cpu0.data           28                       # number of StoreCondReq hits
system.cpu0.dcache.StoreCondReq_hits::total           28                       # number of StoreCondReq hits
system.cpu0.dcache.demand_hits::cpu0.data     16406316                       # number of demand (read+write) hits
system.cpu0.dcache.demand_hits::total        16406316                       # number of demand (read+write) hits
system.cpu0.dcache.overall_hits::cpu0.data     16406316                       # number of overall hits
system.cpu0.dcache.overall_hits::total       16406316                       # number of overall hits
system.cpu0.dcache.ReadReq_misses::cpu0.data          265                       # number of ReadReq misses
system.cpu0.dcache.ReadReq_misses::total          265                       # number of ReadReq misses
system.cpu0.dcache.WriteReq_misses::cpu0.data         4461                       # number of WriteReq misses
system.cpu0.dcache.WriteReq_misses::total         4461                       # number of WriteReq misses
system.cpu0.dcache.LoadLockedReq_misses::cpu0.data            5                       # number of LoadLockedReq misses
system.cpu0.dcache.LoadLockedReq_misses::total            5                       # number of LoadLockedReq misses
system.cpu0.dcache.StoreCondReq_misses::cpu0.data            1                       # number of StoreCondReq misses
system.cpu0.dcache.StoreCondReq_misses::total            1                       # number of StoreCondReq misses
system.cpu0.dcache.demand_misses::cpu0.data         4726                       # number of demand (read+write) misses
system.cpu0.dcache.demand_misses::total          4726                       # number of demand (read+write) misses
system.cpu0.dcache.overall_misses::cpu0.data         4726                       # number of overall misses
system.cpu0.dcache.overall_misses::total         4726                       # number of overall misses
system.cpu0.dcache.ReadReq_miss_latency::cpu0.data     10368987                       # number of ReadReq miss cycles
system.cpu0.dcache.ReadReq_miss_latency::total     10368987                       # number of ReadReq miss cycles
system.cpu0.dcache.WriteReq_miss_latency::cpu0.data    225874499                       # number of WriteReq miss cycles
system.cpu0.dcache.WriteReq_miss_latency::total    225874499                       # number of WriteReq miss cycles
system.cpu0.dcache.LoadLockedReq_miss_latency::cpu0.data       171500                       # number of LoadLockedReq miss cycles
system.cpu0.dcache.LoadLockedReq_miss_latency::total       171500                       # number of LoadLockedReq miss cycles
system.cpu0.dcache.StoreCondReq_miss_latency::cpu0.data         7500                       # number of StoreCondReq miss cycles
system.cpu0.dcache.StoreCondReq_miss_latency::total         7500                       # number of StoreCondReq miss cycles
system.cpu0.dcache.demand_miss_latency::cpu0.data    236243486                       # number of demand (read+write) miss cycles
system.cpu0.dcache.demand_miss_latency::total    236243486                       # number of demand (read+write) miss cycles
system.cpu0.dcache.overall_miss_latency::cpu0.data    236243486                       # number of overall miss cycles
system.cpu0.dcache.overall_miss_latency::total    236243486                       # number of overall miss cycles
system.cpu0.dcache.ReadReq_accesses::cpu0.data      8204794                       # number of ReadReq accesses(hits+misses)
system.cpu0.dcache.ReadReq_accesses::total      8204794                       # number of ReadReq accesses(hits+misses)
system.cpu0.dcache.WriteReq_accesses::cpu0.data      8206248                       # number of WriteReq accesses(hits+misses)
system.cpu0.dcache.WriteReq_accesses::total      8206248                       # number of WriteReq accesses(hits+misses)
system.cpu0.dcache.LoadLockedReq_accesses::cpu0.data           30                       # number of LoadLockedReq accesses(hits+misses)
system.cpu0.dcache.LoadLockedReq_accesses::total           30                       # number of LoadLockedReq accesses(hits+misses)
system.cpu0.dcache.StoreCondReq_accesses::cpu0.data           29                       # number of StoreCondReq accesses(hits+misses)
system.cpu0.dcache.StoreCondReq_accesses::total           29                       # number of StoreCondReq accesses(hits+misses)
system.cpu0.dcache.demand_accesses::cpu0.data     16411042                       # number of demand (read+write) accesses
system.cpu0.dcache.demand_accesses::total     16411042                       # number of demand (read+write) accesses
system.cpu0.dcache.overall_accesses::cpu0.data     16411042                       # number of overall (read+write) accesses
system.cpu0.dcache.overall_accesses::total     16411042                       # number of overall (read+write) accesses
system.cpu0.dcache.ReadReq_miss_rate::cpu0.data     0.000032                       # miss rate for ReadReq accesses
system.cpu0.dcache.ReadReq_miss_rate::total     0.000032                       # miss rate for ReadReq accesses
system.cpu0.dcache.WriteReq_miss_rate::cpu0.data     0.000544                       # miss rate for WriteReq accesses
system.cpu0.dcache.WriteReq_miss_rate::total     0.000544                       # miss rate for WriteReq accesses
system.cpu0.dcache.LoadLockedReq_miss_rate::cpu0.data     0.166667                       # miss rate for LoadLockedReq accesses
system.cpu0.dcache.LoadLockedReq_miss_rate::total     0.166667                       # miss rate for LoadLockedReq accesses
system.cpu0.dcache.StoreCondReq_miss_rate::cpu0.data     0.034483                       # miss rate for StoreCondReq accesses
system.cpu0.dcache.StoreCondReq_miss_rate::total     0.034483                       # miss rate for StoreCondReq accesses
system.cpu0.dcache.demand_miss_rate::cpu0.data     0.000288                       # miss rate for demand accesses
system.cpu0.dcache.demand_miss_rate::total     0.000288                       # miss rate for demand accesses
system.cpu0.dcache.overall_miss_rate::cpu0.data     0.000288                       # miss rate for overall accesses
system.cpu0.dcache.overall_miss_rate::total     0.000288                       # miss rate for overall accesses
system.cpu0.dcache.ReadReq_avg_miss_latency::cpu0.data 39128.252830                       # average ReadReq miss latency
system.cpu0.dcache.ReadReq_avg_miss_latency::total 39128.252830                       # average ReadReq miss latency
system.cpu0.dcache.WriteReq_avg_miss_latency::cpu0.data 50633.153777                       # average WriteReq miss latency
system.cpu0.dcache.WriteReq_avg_miss_latency::total 50633.153777                       # average WriteReq miss latency
system.cpu0.dcache.LoadLockedReq_avg_miss_latency::cpu0.data        34300                       # average LoadLockedReq miss latency
system.cpu0.dcache.LoadLockedReq_avg_miss_latency::total        34300                       # average LoadLockedReq miss latency
system.cpu0.dcache.StoreCondReq_avg_miss_latency::cpu0.data         7500                       # average StoreCondReq miss latency
system.cpu0.dcache.StoreCondReq_avg_miss_latency::total         7500                       # average StoreCondReq miss latency
system.cpu0.dcache.demand_avg_miss_latency::cpu0.data 49988.041896                       # average overall miss latency
system.cpu0.dcache.demand_avg_miss_latency::total 49988.041896                       # average overall miss latency
system.cpu0.dcache.overall_avg_miss_latency::cpu0.data 49988.041896                       # average overall miss latency
system.cpu0.dcache.overall_avg_miss_latency::total 49988.041896                       # average overall miss latency
system.cpu0.dcache.blocked_cycles::no_mshrs           72                       # number of cycles access was blocked
system.cpu0.dcache.blocked_cycles::no_targets            0                       # number of cycles access was blocked
system.cpu0.dcache.blocked::no_mshrs                7                       # number of cycles access was blocked
system.cpu0.dcache.blocked::no_targets              0                       # number of cycles access was blocked
system.cpu0.dcache.avg_blocked_cycles::no_mshrs    10.285714                       # average number of cycles each access was blocked
system.cpu0.dcache.avg_blocked_cycles::no_targets          nan                       # average number of cycles each access was blocked
system.cpu0.dcache.fast_writes                      0                       # number of fast writes performed
system.cpu0.dcache.cache_copies                     0                       # number of cache copies performed
system.cpu0.dcache.writebacks::writebacks          520                       # number of writebacks
system.cpu0.dcache.writebacks::total              520                       # number of writebacks
system.cpu0.dcache.ReadReq_mshr_hits::cpu0.data           89                       # number of ReadReq MSHR hits
system.cpu0.dcache.ReadReq_mshr_hits::total           89                       # number of ReadReq MSHR hits
system.cpu0.dcache.WriteReq_mshr_hits::cpu0.data         3495                       # number of WriteReq MSHR hits
system.cpu0.dcache.WriteReq_mshr_hits::total         3495                       # number of WriteReq MSHR hits
system.cpu0.dcache.LoadLockedReq_mshr_hits::cpu0.data            5                       # number of LoadLockedReq MSHR hits
system.cpu0.dcache.LoadLockedReq_mshr_hits::total            5                       # number of LoadLockedReq MSHR hits
system.cpu0.dcache.demand_mshr_hits::cpu0.data         3584                       # number of demand (read+write) MSHR hits
system.cpu0.dcache.demand_mshr_hits::total         3584                       # number of demand (read+write) MSHR hits
system.cpu0.dcache.overall_mshr_hits::cpu0.data         3584                       # number of overall MSHR hits
system.cpu0.dcache.overall_mshr_hits::total         3584                       # number of overall MSHR hits
system.cpu0.dcache.ReadReq_mshr_misses::cpu0.data          176                       # number of ReadReq MSHR misses
system.cpu0.dcache.ReadReq_mshr_misses::total          176                       # number of ReadReq MSHR misses
system.cpu0.dcache.WriteReq_mshr_misses::cpu0.data          966                       # number of WriteReq MSHR misses
system.cpu0.dcache.WriteReq_mshr_misses::total          966                       # number of WriteReq MSHR misses
system.cpu0.dcache.StoreCondReq_mshr_misses::cpu0.data            1                       # number of StoreCondReq MSHR misses
system.cpu0.dcache.StoreCondReq_mshr_misses::total            1                       # number of StoreCondReq MSHR misses
system.cpu0.dcache.demand_mshr_misses::cpu0.data         1142                       # number of demand (read+write) MSHR misses
system.cpu0.dcache.demand_mshr_misses::total         1142                       # number of demand (read+write) MSHR misses
system.cpu0.dcache.overall_mshr_misses::cpu0.data         1142                       # number of overall MSHR misses
system.cpu0.dcache.overall_mshr_misses::total         1142                       # number of overall MSHR misses
system.cpu0.dcache.ReadReq_mshr_miss_latency::cpu0.data      6642509                       # number of ReadReq MSHR miss cycles
system.cpu0.dcache.ReadReq_mshr_miss_latency::total      6642509                       # number of ReadReq MSHR miss cycles
system.cpu0.dcache.WriteReq_mshr_miss_latency::cpu0.data     52659000                       # number of WriteReq MSHR miss cycles
system.cpu0.dcache.WriteReq_mshr_miss_latency::total     52659000                       # number of WriteReq MSHR miss cycles
system.cpu0.dcache.StoreCondReq_mshr_miss_latency::cpu0.data         4500                       # number of StoreCondReq MSHR miss cycles
system.cpu0.dcache.StoreCondReq_mshr_miss_latency::total         4500                       # number of StoreCondReq MSHR miss cycles
system.cpu0.dcache.demand_mshr_miss_latency::cpu0.data     59301509                       # number of demand (read+write) MSHR miss cycles
system.cpu0.dcache.demand_mshr_miss_latency::total     59301509                       # number of demand (read+write) MSHR miss cycles
system.cpu0.dcache.overall_mshr_miss_latency::cpu0.data     59301509                       # number of overall MSHR miss cycles
system.cpu0.dcache.overall_mshr_miss_latency::total     59301509                       # number of overall MSHR miss cycles
system.cpu0.dcache.ReadReq_mshr_miss_rate::cpu0.data     0.000021                       # mshr miss rate for ReadReq accesses
system.cpu0.dcache.ReadReq_mshr_miss_rate::total     0.000021                       # mshr miss rate for ReadReq accesses
system.cpu0.dcache.WriteReq_mshr_miss_rate::cpu0.data     0.000118                       # mshr miss rate for WriteReq accesses
system.cpu0.dcache.WriteReq_mshr_miss_rate::total     0.000118                       # mshr miss rate for WriteReq accesses
system.cpu0.dcache.StoreCondReq_mshr_miss_rate::cpu0.data     0.034483                       # mshr miss rate for StoreCondReq accesses
system.cpu0.dcache.StoreCondReq_mshr_miss_rate::total     0.034483                       # mshr miss rate for StoreCondReq accesses
system.cpu0.dcache.demand_mshr_miss_rate::cpu0.data     0.000070                       # mshr miss rate for demand accesses
system.cpu0.dcache.demand_mshr_miss_rate::total     0.000070                       # mshr miss rate for demand accesses
system.cpu0.dcache.overall_mshr_miss_rate::cpu0.data     0.000070                       # mshr miss rate for overall accesses
system.cpu0.dcache.overall_mshr_miss_rate::total     0.000070                       # mshr miss rate for overall accesses
system.cpu0.dcache.ReadReq_avg_mshr_miss_latency::cpu0.data 37741.528409                       # average ReadReq mshr miss latency
system.cpu0.dcache.ReadReq_avg_mshr_miss_latency::total 37741.528409                       # average ReadReq mshr miss latency
system.cpu0.dcache.WriteReq_avg_mshr_miss_latency::cpu0.data 54512.422360                       # average WriteReq mshr miss latency
system.cpu0.dcache.WriteReq_avg_mshr_miss_latency::total 54512.422360                       # average WriteReq mshr miss latency
system.cpu0.dcache.StoreCondReq_avg_mshr_miss_latency::cpu0.data         4500                       # average StoreCondReq mshr miss latency
system.cpu0.dcache.StoreCondReq_avg_mshr_miss_latency::total         4500                       # average StoreCondReq mshr miss latency
system.cpu0.dcache.demand_avg_mshr_miss_latency::cpu0.data 51927.766200                       # average overall mshr miss latency
system.cpu0.dcache.demand_avg_mshr_miss_latency::total 51927.766200                       # average overall mshr miss latency
system.cpu0.dcache.overall_avg_mshr_miss_latency::cpu0.data 51927.766200                       # average overall mshr miss latency
system.cpu0.dcache.overall_avg_mshr_miss_latency::total 51927.766200                       # average overall mshr miss latency
system.cpu0.dcache.no_allocate_misses               0                       # Number of misses that were no-allocate
system.cpu0.icache.tags.replacements               76                       # number of replacements
system.cpu0.icache.tags.tagsinuse          293.697574                       # Cycle average of tags in use
system.cpu0.icache.tags.total_refs               6329                       # Total number of references to valid blocks.
system.cpu0.icache.tags.sampled_refs              397                       # Sample count of references to valid blocks.
system.cpu0.icache.tags.avg_refs            15.942065                       # Average number of references to valid blocks.
system.cpu0.icache.tags.warmup_cycle                0                       # Cycle when the warmup percentage was hit.
system.cpu0.icache.tags.occ_blocks::cpu0.inst   293.697574                       # Average occupied blocks per requestor
system.cpu0.icache.tags.occ_percent::cpu0.inst     0.573628                       # Average percentage of cache occupancy
system.cpu0.icache.tags.occ_percent::total     0.573628                       # Average percentage of cache occupancy
system.cpu0.icache.tags.occ_task_id_blocks::1024          321                       # Occupied blocks per task id
system.cpu0.icache.tags.age_task_id_blocks_1024::0           45                       # Occupied blocks per task id
system.cpu0.icache.tags.age_task_id_blocks_1024::4          276                       # Occupied blocks per task id
system.cpu0.icache.tags.occ_task_id_percent::1024     0.626953                       # Percentage of cache occupancy per task id
system.cpu0.icache.tags.tag_accesses            13985                       # Number of tag accesses
system.cpu0.icache.tags.data_accesses           13985                       # Number of data accesses
system.cpu0.icache.ReadReq_hits::cpu0.inst         6329                       # number of ReadReq hits
system.cpu0.icache.ReadReq_hits::total           6329                       # number of ReadReq hits
system.cpu0.icache.demand_hits::cpu0.inst         6329                       # number of demand (read+write) hits
system.cpu0.icache.demand_hits::total            6329                       # number of demand (read+write) hits
system.cpu0.icache.overall_hits::cpu0.inst         6329                       # number of overall hits
system.cpu0.icache.overall_hits::total           6329                       # number of overall hits
system.cpu0.icache.ReadReq_misses::cpu0.inst          465                       # number of ReadReq misses
system.cpu0.icache.ReadReq_misses::total          465                       # number of ReadReq misses
system.cpu0.icache.demand_misses::cpu0.inst          465                       # number of demand (read+write) misses
system.cpu0.icache.demand_misses::total           465                       # number of demand (read+write) misses
system.cpu0.icache.overall_misses::cpu0.inst          465                       # number of overall misses
system.cpu0.icache.overall_misses::total          465                       # number of overall misses
system.cpu0.icache.ReadReq_miss_latency::cpu0.inst     23603999                       # number of ReadReq miss cycles
system.cpu0.icache.ReadReq_miss_latency::total     23603999                       # number of ReadReq miss cycles
system.cpu0.icache.demand_miss_latency::cpu0.inst     23603999                       # number of demand (read+write) miss cycles
system.cpu0.icache.demand_miss_latency::total     23603999                       # number of demand (read+write) miss cycles
system.cpu0.icache.overall_miss_latency::cpu0.inst     23603999                       # number of overall miss cycles
system.cpu0.icache.overall_miss_latency::total     23603999                       # number of overall miss cycles
system.cpu0.icache.ReadReq_accesses::cpu0.inst         6794                       # number of ReadReq accesses(hits+misses)
system.cpu0.icache.ReadReq_accesses::total         6794                       # number of ReadReq accesses(hits+misses)
system.cpu0.icache.demand_accesses::cpu0.inst         6794                       # number of demand (read+write) accesses
system.cpu0.icache.demand_accesses::total         6794                       # number of demand (read+write) accesses
system.cpu0.icache.overall_accesses::cpu0.inst         6794                       # number of overall (read+write) accesses
system.cpu0.icache.overall_accesses::total         6794                       # number of overall (read+write) accesses
[...]
system.l2.demand_mshr_miss_rate::cpu4.inst     0.096016                       # mshr miss rate for demand accesses
system.l2.demand_mshr_miss_rate::cpu4.data     0.348713                       # mshr miss rate for demand accesses
system.l2.demand_mshr_miss_rate::total       0.340997                       # mshr miss rate for demand accesses
system.l2.overall_mshr_miss_rate::cpu0.inst     0.894207                       # mshr miss rate for overall accesses
system.l2.overall_mshr_miss_rate::cpu0.data     0.926484                       # mshr miss rate for overall accesses
system.l2.overall_mshr_miss_rate::cpu1.inst     0.034615                       # mshr miss rate for overall accesses
system.l2.overall_mshr_miss_rate::cpu1.data     0.442590                       # mshr miss rate for overall accesses
system.l2.overall_mshr_miss_rate::cpu2.inst     0.115268                       # mshr miss rate for overall accesses
system.l2.overall_mshr_miss_rate::cpu2.data     0.318785                       # mshr miss rate for overall accesses
system.l2.overall_mshr_miss_rate::cpu3.inst     0.082587                       # mshr miss rate for overall accesses
system.l2.overall_mshr_miss_rate::cpu3.data     0.322512                       # mshr miss rate for overall accesses
system.l2.overall_mshr_miss_rate::cpu4.inst     0.096016                       # mshr miss rate for overall accesses
system.l2.overall_mshr_miss_rate::cpu4.data     0.348713                       # mshr miss rate for overall accesses
system.l2.overall_mshr_miss_rate::total      0.340997                       # mshr miss rate for overall accesses
system.l2.ReadReq_avg_mshr_miss_latency::cpu0.inst 41052.112676                       # average ReadReq mshr miss latency
system.l2.ReadReq_avg_mshr_miss_latency::cpu0.data 42353.260870                       # average ReadReq mshr miss latency
system.l2.ReadReq_avg_mshr_miss_latency::cpu1.inst 40763.888889                       # average ReadReq mshr miss latency
system.l2.ReadReq_avg_mshr_miss_latency::cpu1.data 40514.470548                       # average ReadReq mshr miss latency
system.l2.ReadReq_avg_mshr_miss_latency::cpu2.inst 40855.263158                       # average ReadReq mshr miss latency
system.l2.ReadReq_avg_mshr_miss_latency::cpu2.data 40511.413930                       # average ReadReq mshr miss latency
system.l2.ReadReq_avg_mshr_miss_latency::cpu3.inst 40945.783133                       # average ReadReq mshr miss latency
system.l2.ReadReq_avg_mshr_miss_latency::cpu3.data 40510.108436                       # average ReadReq mshr miss latency
system.l2.ReadReq_avg_mshr_miss_latency::cpu4.inst 40702.127660                       # average ReadReq mshr miss latency
system.l2.ReadReq_avg_mshr_miss_latency::cpu4.data 40516.986168                       # average ReadReq mshr miss latency
system.l2.ReadReq_avg_mshr_miss_latency::total 40539.223500                       # average ReadReq mshr miss latency
system.l2.UpgradeReq_avg_mshr_miss_latency::cpu1.data 40600.232621                       # average UpgradeReq mshr miss latency
system.l2.UpgradeReq_avg_mshr_miss_latency::cpu2.data 40575.057592                       # average UpgradeReq mshr miss latency
system.l2.UpgradeReq_avg_mshr_miss_latency::cpu3.data 40583.780750                       # average UpgradeReq mshr miss latency
system.l2.UpgradeReq_avg_mshr_miss_latency::cpu4.data 40598.750056                       # average UpgradeReq mshr miss latency
system.l2.UpgradeReq_avg_mshr_miss_latency::total 40588.337391                       # average UpgradeReq mshr miss latency
system.l2.SCUpgradeReq_avg_mshr_miss_latency::cpu1.data 40539.325309                       # average SCUpgradeReq mshr miss latency
system.l2.SCUpgradeReq_avg_mshr_miss_latency::cpu2.data 40527.752883                       # average SCUpgradeReq mshr miss latency
system.l2.SCUpgradeReq_avg_mshr_miss_latency::cpu3.data 40524.734193                       # average SCUpgradeReq mshr miss latency
system.l2.SCUpgradeReq_avg_mshr_miss_latency::cpu4.data 40526.812902                       # average SCUpgradeReq mshr miss latency
system.l2.SCUpgradeReq_avg_mshr_miss_latency::total 40528.628899                       # average SCUpgradeReq mshr miss latency
system.l2.ReadExReq_avg_mshr_miss_latency::cpu0.data 40571.278826                       # average ReadExReq mshr miss latency
system.l2.ReadExReq_avg_mshr_miss_latency::cpu1.data 42489.208633                       # average ReadExReq mshr miss latency
system.l2.ReadExReq_avg_mshr_miss_latency::cpu2.data 41685.929648                       # average ReadExReq mshr miss latency
system.l2.ReadExReq_avg_mshr_miss_latency::cpu3.data 40797.153025                       # average ReadExReq mshr miss latency
system.l2.ReadExReq_avg_mshr_miss_latency::cpu4.data 41141.089109                       # average ReadExReq mshr miss latency
system.l2.ReadExReq_avg_mshr_miss_latency::total 40947.042254                       # average ReadExReq mshr miss latency
system.l2.demand_avg_mshr_miss_latency::cpu0.inst 41052.112676                       # average overall mshr miss latency
system.l2.demand_avg_mshr_miss_latency::cpu0.data 40728.011472                       # average overall mshr miss latency
system.l2.demand_avg_mshr_miss_latency::cpu1.inst 40763.888889                       # average overall mshr miss latency
system.l2.demand_avg_mshr_miss_latency::cpu1.data 40603.706112                       # average overall mshr miss latency
system.l2.demand_avg_mshr_miss_latency::cpu2.inst 40855.263158                       # average overall mshr miss latency
system.l2.demand_avg_mshr_miss_latency::cpu2.data 40563.446126                       # average overall mshr miss latency
system.l2.demand_avg_mshr_miss_latency::cpu3.inst 40945.783133                       # average overall mshr miss latency
system.l2.demand_avg_mshr_miss_latency::cpu3.data 40524.204823                       # average overall mshr miss latency
system.l2.demand_avg_mshr_miss_latency::cpu4.inst 40702.127660                       # average overall mshr miss latency
system.l2.demand_avg_mshr_miss_latency::cpu4.data 40546.148508                       # average overall mshr miss latency
system.l2.demand_avg_mshr_miss_latency::total 40576.650639                       # average overall mshr miss latency
system.l2.overall_avg_mshr_miss_latency::cpu0.inst 41052.112676                       # average overall mshr miss latency
system.l2.overall_avg_mshr_miss_latency::cpu0.data 40728.011472                       # average overall mshr miss latency
system.l2.overall_avg_mshr_miss_latency::cpu1.inst 40763.888889                       # average overall mshr miss latency
system.l2.overall_avg_mshr_miss_latency::cpu1.data 40603.706112                       # average overall mshr miss latency
system.l2.overall_avg_mshr_miss_latency::cpu2.inst 40855.263158                       # average overall mshr miss latency
system.l2.overall_avg_mshr_miss_latency::cpu2.data 40563.446126                       # average overall mshr miss latency
system.l2.overall_avg_mshr_miss_latency::cpu3.inst 40945.783133                       # average overall mshr miss latency
system.l2.overall_avg_mshr_miss_latency::cpu3.data 40524.204823                       # average overall mshr miss latency
system.l2.overall_avg_mshr_miss_latency::cpu4.inst 40702.127660                       # average overall mshr miss latency
system.l2.overall_avg_mshr_miss_latency::cpu4.data 40546.148508                       # average overall mshr miss latency
system.l2.overall_avg_mshr_miss_latency::total 40576.650639                       # average overall mshr miss latency
system.l2.no_allocate_misses                        0                       # Number of misses that were no-allocate
system.membus.trans_dist::ReadReq               17566                       # Transaction distribution
system.membus.trans_dist::ReadResp              17566                       # Transaction distribution
system.membus.trans_dist::Writeback               346                       # Transaction distribution
system.membus.trans_dist::UpgradeReq           106447                       # Transaction distribution
system.membus.trans_dist::SCUpgradeReq         138588                       # Transaction distribution
system.membus.trans_dist::UpgradeResp          143628                       # Transaction distribution
system.membus.trans_dist::SCUpgradeFailReq            1                       # Transaction distribution
system.membus.trans_dist::ReadExReq              2212                       # Transaction distribution
system.membus.trans_dist::ReadExResp             1772                       # Transaction distribution
system.membus.pkt_count_system.l2.mem_side::system.physmem.port       428126                       # Packet count per connected master and slave (bytes)
system.membus.pkt_count::total                 428126                       # Packet count per connected master and slave (bytes)
system.membus.pkt_size_system.l2.mem_side::system.physmem.port      1259776                       # Cumulative packet size per connected master and slave (bytes)
system.membus.pkt_size::total                 1259776                       # Cumulative packet size per connected master and slave (bytes)
system.membus.snoops                           101848                       # Total snoops (count)
system.membus.snoop_fanout::samples            266086                       # Request fanout histogram
system.membus.snoop_fanout::mean                    0                       # Request fanout histogram
system.membus.snoop_fanout::stdev                   0                       # Request fanout histogram
system.membus.snoop_fanout::underflows              0      0.00%      0.00% # Request fanout histogram
system.membus.snoop_fanout::0                  266086    100.00%    100.00% # Request fanout histogram
system.membus.snoop_fanout::1                       0      0.00%    100.00% # Request fanout histogram
system.membus.snoop_fanout::overflows               0      0.00%    100.00% # Request fanout histogram
system.membus.snoop_fanout::min_value               0                       # Request fanout histogram
system.membus.snoop_fanout::max_value               0                       # Request fanout histogram
system.membus.snoop_fanout::total              266086                       # Request fanout histogram
system.membus.reqLayer0.occupancy           243496940                       # Layer occupancy (ticks)
system.membus.reqLayer0.utilization               1.5                       # Layer utilization (%)
system.membus.respLayer1.occupancy          317123030                       # Layer occupancy (ticks)
system.membus.respLayer1.utilization              1.9                       # Layer utilization (%)
system.tol2bus.trans_dist::ReadReq             507054                       # Transaction distribution
system.tol2bus.trans_dist::ReadResp            506914                       # Transaction distribution
system.tol2bus.trans_dist::ReadRespWithInvalidate          140                       # Transaction distribution
system.tol2bus.trans_dist::Writeback            15185                       # Transaction distribution
system.tol2bus.trans_dist::UpgradeReq          106521                       # Transaction distribution
system.tol2bus.trans_dist::SCUpgradeReq        138589                       # Transaction distribution
system.tol2bus.trans_dist::UpgradeResp         245110                       # Transaction distribution
system.tol2bus.trans_dist::SCUpgradeFailReq         9093                       # Transaction distribution
system.tol2bus.trans_dist::UpgradeFailResp         9093                       # Transaction distribution
system.tol2bus.trans_dist::ReadExReq            62086                       # Transaction distribution
system.tol2bus.trans_dist::ReadExResp           62086                       # Transaction distribution
system.tol2bus.pkt_count_system.cpu0.icache.mem_side::system.l2.cpu_side          794                       # Packet count per connected master and slave (bytes)
system.tol2bus.pkt_count_system.cpu0.dcache.mem_side::system.l2.cpu_side         2793                       # Packet count per connected master and slave (bytes)
system.tol2bus.pkt_count_system.cpu1.icache.mem_side::system.l2.cpu_side         2080                       # Packet count per connected master and slave (bytes)
system.tol2bus.pkt_count_system.cpu1.dcache.mem_side::system.l2.cpu_side       185569                       # Packet count per connected master and slave (bytes)
system.tol2bus.pkt_count_system.cpu2.icache.mem_side::system.l2.cpu_side         1978                       # Packet count per connected master and slave (bytes)
system.tol2bus.pkt_count_system.cpu2.dcache.mem_side::system.l2.cpu_side       284436                       # Packet count per connected master and slave (bytes)
system.tol2bus.pkt_count_system.cpu3.icache.mem_side::system.l2.cpu_side         2010                       # Packet count per connected master and slave (bytes)
system.tol2bus.pkt_count_system.cpu3.dcache.mem_side::system.l2.cpu_side       288706                       # Packet count per connected master and slave (bytes)
system.tol2bus.pkt_count_system.cpu4.icache.mem_side::system.l2.cpu_side         1958                       # Packet count per connected master and slave (bytes)
system.tol2bus.pkt_count_system.cpu4.dcache.mem_side::system.l2.cpu_side       268626                       # Packet count per connected master and slave (bytes)
system.tol2bus.pkt_count::total               1038950                       # Packet count per connected master and slave (bytes)
system.tol2bus.pkt_size_system.cpu0.icache.mem_side::system.l2.cpu_side        25408                       # Cumulative packet size per connected master and slave (bytes)
system.tol2bus.pkt_size_system.cpu0.dcache.mem_side::system.l2.cpu_side       105536                       # Cumulative packet size per connected master and slave (bytes)
system.tol2bus.pkt_size_system.cpu1.icache.mem_side::system.l2.cpu_side        66560                       # Cumulative packet size per connected master and slave (bytes)
system.tol2bus.pkt_size_system.cpu1.dcache.mem_side::system.l2.cpu_side       509248                       # Cumulative packet size per connected master and slave (bytes)
system.tol2bus.pkt_size_system.cpu2.icache.mem_side::system.l2.cpu_side        63296                       # Cumulative packet size per connected master and slave (bytes)
system.tol2bus.pkt_size_system.cpu2.dcache.mem_side::system.l2.cpu_side      1151104                       # Cumulative packet size per connected master and slave (bytes)
system.tol2bus.pkt_size_system.cpu3.icache.mem_side::system.l2.cpu_side        64320                       # Cumulative packet size per connected master and slave (bytes)
system.tol2bus.pkt_size_system.cpu3.dcache.mem_side::system.l2.cpu_side      1576064                       # Cumulative packet size per connected master and slave (bytes)
system.tol2bus.pkt_size_system.cpu4.icache.mem_side::system.l2.cpu_side        62656                       # Cumulative packet size per connected master and slave (bytes)
system.tol2bus.pkt_size_system.cpu4.dcache.mem_side::system.l2.cpu_side       977664                       # Cumulative packet size per connected master and slave (bytes)
system.tol2bus.pkt_size::total                4601856                       # Cumulative packet size per connected master and slave (bytes)
system.tol2bus.snoops                          622921                       # Total snoops (count)
system.tol2bus.snoop_fanout::samples           838528                       # Request fanout histogram
system.tol2bus.snoop_fanout::mean                   9                       # Request fanout histogram
system.tol2bus.snoop_fanout::stdev                  0                       # Request fanout histogram
system.tol2bus.snoop_fanout::underflows             0      0.00%      0.00% # Request fanout histogram
system.tol2bus.snoop_fanout::0                      0      0.00%      0.00% # Request fanout histogram
system.tol2bus.snoop_fanout::1                      0      0.00%      0.00% # Request fanout histogram
system.tol2bus.snoop_fanout::2                      0      0.00%      0.00% # Request fanout histogram
system.tol2bus.snoop_fanout::3                      0      0.00%      0.00% # Request fanout histogram
system.tol2bus.snoop_fanout::4                      0      0.00%      0.00% # Request fanout histogram
system.tol2bus.snoop_fanout::5                      0      0.00%      0.00% # Request fanout histogram
system.tol2bus.snoop_fanout::6                      0      0.00%      0.00% # Request fanout histogram
system.tol2bus.snoop_fanout::7                      0      0.00%      0.00% # Request fanout histogram
system.tol2bus.snoop_fanout::8                      0      0.00%      0.00% # Request fanout histogram
system.tol2bus.snoop_fanout::9                 838528    100.00%    100.00% # Request fanout histogram
system.tol2bus.snoop_fanout::10                     0      0.00%    100.00% # Request fanout histogram
system.tol2bus.snoop_fanout::overflows              0      0.00%    100.00% # Request fanout histogram
system.tol2bus.snoop_fanout::min_value              9                       # Request fanout histogram
system.tol2bus.snoop_fanout::max_value              9                       # Request fanout histogram
system.tol2bus.snoop_fanout::total             838528                       # Request fanout histogram
system.tol2bus.reqLayer0.occupancy          439819944                       # Layer occupancy (ticks)
system.tol2bus.reqLayer0.utilization              2.7                       # Layer utilization (%)
system.tol2bus.respLayer0.occupancy            595999                       # Layer occupancy (ticks)
system.tol2bus.respLayer0.utilization             0.0                       # Layer utilization (%)
system.tol2bus.respLayer1.occupancy           1713991                       # Layer occupancy (ticks)
system.tol2bus.respLayer1.utilization             0.0                       # Layer utilization (%)
system.tol2bus.respLayer4.occupancy           1586411                       # Layer occupancy (ticks)
system.tol2bus.respLayer4.utilization             0.0                       # Layer utilization (%)
system.tol2bus.respLayer5.occupancy         206471493                       # Layer occupancy (ticks)
system.tol2bus.respLayer5.utilization             1.3                       # Layer utilization (%)
system.tol2bus.respLayer8.occupancy           1502442                       # Layer occupancy (ticks)
system.tol2bus.respLayer8.utilization             0.0                       # Layer utilization (%)
system.tol2bus.respLayer9.occupancy         289782534                       # Layer occupancy (ticks)
system.tol2bus.respLayer9.utilization             1.8                       # Layer utilization (%)
system.tol2bus.respLayer12.occupancy          1542400                       # Layer occupancy (ticks)
system.tol2bus.respLayer12.utilization            0.0                       # Layer utilization (%)
system.tol2bus.respLayer13.occupancy        290375091                       # Layer occupancy (ticks)
system.tol2bus.respLayer13.utilization            1.8                       # Layer utilization (%)
system.tol2bus.respLayer16.occupancy          1501388                       # Layer occupancy (ticks)
system.tol2bus.respLayer16.utilization            0.0                       # Layer utilization (%)
system.tol2bus.respLayer17.occupancy        266758673                       # Layer occupancy (ticks)
system.tol2bus.respLayer17.utilization            1.6                       # Layer utilization (%)

---------- End Simulation Statistics   ----------
