
---------- Begin Simulation Statistics ----------
sim_seconds                                  0.009800                       # Number of seconds simulated
sim_ticks                                  9799913000                       # Number of ticks simulated
final_tick                                 9799913000                       # Number of ticks from beginning of simulation (restored from checkpoints and never reset)
sim_freq                                 1000000000000                       # Frequency of simulated ticks
host_inst_rate                                 203737                       # Simulator instruction rate (inst/s)
host_op_rate                                   211488                       # Simulator op (including micro ops) rate (op/s)
host_tick_rate                               45245512                       # Simulator tick rate (ticks/s)
host_mem_usage                                 685284                       # Number of bytes of host memory used
host_seconds                                   216.59                       # Real time elapsed on the host
sim_insts                                    44128251                       # Number of instructions simulated
sim_ops                                      45807032                       # Number of ops (including micro ops) simulated
system.voltage_domain.voltage                       1                       # Voltage in Volts
system.clk_domain.clock                          1000                       # Clock period in ticks
system.physmem.bytes_read::cpu0.inst            21056                       # Number of bytes read from this memory
system.physmem.bytes_read::cpu0.data            66240                       # Number of bytes read from this memory
system.physmem.bytes_read::cpu1.inst            10240                       # Number of bytes read from this memory
system.physmem.bytes_read::cpu1.data            24128                       # Number of bytes read from this memory
system.physmem.bytes_read::cpu2.inst            10432                       # Number of bytes read from this memory
system.physmem.bytes_read::cpu2.data            34048                       # Number of bytes read from this memory
system.physmem.bytes_read::total               166144                       # Number of bytes read from this memory
system.physmem.bytes_inst_read::cpu0.inst        21056                       # Number of instructions bytes read from this memory
system.physmem.bytes_inst_read::cpu1.inst        10240                       # Number of instructions bytes read from this memory
system.physmem.bytes_inst_read::cpu2.inst        10432                       # Number of instructions bytes read from this memory
system.physmem.bytes_inst_read::total           41728                       # Number of instructions bytes read from this memory
system.physmem.num_reads::cpu0.inst               329                       # Number of read requests responded to by this memory
system.physmem.num_reads::cpu0.data              1035                       # Number of read requests responded to by this memory
system.physmem.num_reads::cpu1.inst               160                       # Number of read requests responded to by this memory
system.physmem.num_reads::cpu1.data               377                       # Number of read requests responded to by this memory
system.physmem.num_reads::cpu2.inst               163                       # Number of read requests responded to by this memory
system.physmem.num_reads::cpu2.data               532                       # Number of read requests responded to by this memory
system.physmem.num_reads::total                  2596                       # Number of read requests responded to by this memory
system.physmem.bw_read::cpu0.inst             2148591                       # Total read bandwidth from this memory (bytes/s)
system.physmem.bw_read::cpu0.data             6759244                       # Total read bandwidth from this memory (bytes/s)
system.physmem.bw_read::cpu1.inst             1044907                       # Total read bandwidth from this memory (bytes/s)
system.physmem.bw_read::cpu1.data             2462063                       # Total read bandwidth from this memory (bytes/s)
system.physmem.bw_read::cpu2.inst             1064499                       # Total read bandwidth from this memory (bytes/s)
system.physmem.bw_read::cpu2.data             3474317                       # Total read bandwidth from this memory (bytes/s)
system.physmem.bw_read::total                16953620                       # Total read bandwidth from this memory (bytes/s)
system.physmem.bw_inst_read::cpu0.inst        2148591                       # Instruction read bandwidth from this memory (bytes/s)
system.physmem.bw_inst_read::cpu1.inst        1044907                       # Instruction read bandwidth from this memory (bytes/s)
system.physmem.bw_inst_read::cpu2.inst        1064499                       # Instruction read bandwidth from this memory (bytes/s)
system.physmem.bw_inst_read::total            4257997                       # Instruction read bandwidth from this memory (bytes/s)
system.physmem.bw_total::cpu0.inst            2148591                       # Total bandwidth to/from this memory (bytes/s)
system.physmem.bw_total::cpu0.data            6759244                       # Total bandwidth to/from this memory (bytes/s)
system.physmem.bw_total::cpu1.inst            1044907                       # Total bandwidth to/from this memory (bytes/s)
system.physmem.bw_total::cpu1.data            2462063                       # Total bandwidth to/from this memory (bytes/s)
system.physmem.bw_total::cpu2.inst            1064499                       # Total bandwidth to/from this memory (bytes/s)
system.physmem.bw_total::cpu2.data            3474317                       # Total bandwidth to/from this memory (bytes/s)
system.physmem.bw_total::total               16953620                       # Total bandwidth to/from this memory (bytes/s)
system.cpu0.branchPred.lookups                4889362                       # Number of BP lookups
system.cpu0.branchPred.condPredicted          4884107                       # Number of conditional branches predicted
system.cpu0.branchPred.condIncorrect              741                       # Number of conditional branches incorrect
system.cpu0.branchPred.BTBLookups             4882906                       # Number of BTB lookups
system.cpu0.branchPred.BTBHits                4882462                       # Number of BTB hits
system.cpu0.branchPred.BTBCorrect                   0                       # Number of correct BTB predictions (this stat may not work properly.
system.cpu0.branchPred.BTBHitPct            99.990907                       # BTB Hit Percentage
system.cpu0.branchPred.usedRAS                   2473                       # Number of times the RAS was used to get a target.
system.cpu0.branchPred.RASInCorrect                59                       # Number of incorrect RAS predictions.
system.cpu0.dstage2_mmu.stage2_tlb.walker.walks            0                       # Table walker walks requested
system.cpu0.dstage2_mmu.stage2_tlb.walker.walkRequestOrigin_Requested::Data            0                       # Table walker requests started/completed, data/inst
system.cpu0.dstage2_mmu.stage2_tlb.walker.walkRequestOrigin_Requested::Inst            0                       # Table walker requests started/completed, data/inst
system.cpu0.dstage2_mmu.stage2_tlb.walker.walkRequestOrigin_Requested::total            0                       # Table walker requests started/completed, data/inst
system.cpu0.dstage2_mmu.stage2_tlb.walker.walkRequestOrigin_Completed::Data            0                       # Table walker requests started/completed, data/inst
system.cpu0.dstage2_mmu.stage2_tlb.walker.walkRequestOrigin_Completed::Inst            0                       # Table walker requests started/completed, data/inst
system.cpu0.dstage2_mmu.stage2_tlb.walker.walkRequestOrigin_Completed::total            0                       # Table walker requests started/completed, data/inst
system.cpu0.dstage2_mmu.stage2_tlb.walker.walkRequestOrigin::total            0                       # Table walker requests started/completed, data/inst
system.cpu0.dstage2_mmu.stage2_tlb.inst_hits            0                       # ITB inst hits
system.cpu0.dstage2_mmu.stage2_tlb.inst_misses            0                       # ITB inst misses
system.cpu0.dstage2_mmu.stage2_tlb.read_hits            0                       # DTB read hits
system.cpu0.dstage2_mmu.stage2_tlb.read_misses            0                       # DTB read misses
system.cpu0.dstage2_mmu.stage2_tlb.write_hits            0                       # DTB write hits
system.cpu0.dstage2_mmu.stage2_tlb.write_misses            0                       # DTB write misses
system.cpu0.dstage2_mmu.stage2_tlb.flush_tlb            0                       # Number of times complete TLB was flushed
system.cpu0.dstage2_mmu.stage2_tlb.flush_tlb_mva            0                       # Number of times TLB was flushed by MVA
system.cpu0.dstage2_mmu.stage2_tlb.flush_tlb_mva_asid            0                       # Number of times TLB was flushed by MVA & ASID
system.cpu0.dstage2_mmu.stage2_tlb.flush_tlb_asid            0                       # Number of times TLB was flushed by ASID
system.cpu0.dstage2_mmu.stage2_tlb.flush_entries            0                       # Number of entries that have been flushed from TLB
system.cpu0.dstage2_mmu.stage2_tlb.align_faults            0                       # Number of TLB faults due to alignment restrictions
system.cpu0.dstage2_mmu.stage2_tlb.prefetch_faults            0                       # Number of TLB faults due to prefetch
system.cpu0.dstage2_mmu.stage2_tlb.domain_faults            0                       # Number of TLB faults due to domain restrictions
system.cpu0.dstage2_mmu.stage2_tlb.perms_faults            0                       # Number of TLB faults due to permissions restrictions
system.cpu0.dstage2_mmu.stage2_tlb.read_accesses            0                       # DTB read accesses
system.cpu0.dstage2_mmu.stage2_tlb.write_accesses            0                       # DTB write accesses
system.cpu0.dstage2_mmu.stage2_tlb.inst_accesses            0                       # ITB inst accesses
system.cpu0.dstage2_mmu.stage2_tlb.hits             0                       # DTB hits
system.cpu0.dstage2_mmu.stage2_tlb.misses            0                       # DTB misses
system.cpu0.dstage2_mmu.stage2_tlb.accesses            0                       # DTB accesses
system.cpu0.dtb.walker.walks                        0                       # Table walker walks requested
system.cpu0.dtb.walker.walkRequestOrigin_Requested::Data            0                       # Table walker requests started/completed, data/inst
system.cpu0.dtb.walker.walkRequestOrigin_Requested::Inst            0                       # Table walker requests started/completed, data/inst
system.cpu0.dtb.walker.walkRequestOrigin_Requested::total            0                       # Table walker requests started/completed, data/inst
system.cpu0.dtb.walker.walkRequestOrigin_Completed::Data            0                       # Table walker requests started/completed, data/inst
system.cpu0.dtb.walker.walkRequestOrigin_Completed::Inst            0                       # Table walker requests started/completed, data/inst
system.cpu0.dtb.walker.walkRequestOrigin_Completed::total            0                       # Table walker requests started/completed, data/inst
system.cpu0.dtb.walker.walkRequestOrigin::total            0                       # Table walker requests started/completed, data/inst
system.cpu0.dtb.inst_hits                           0                       # ITB inst hits
system.cpu0.dtb.inst_misses                         0                       # ITB inst misses
system.cpu0.dtb.read_hits                           0                       # DTB read hits
system.cpu0.dtb.read_misses                         0                       # DTB read misses
system.cpu0.dtb.write_hits                          0                       # DTB write hits
system.cpu0.dtb.write_misses                        0                       # DTB write misses
system.cpu0.dtb.flush_tlb                           0                       # Number of times complete TLB was flushed
system.cpu0.dtb.flush_tlb_mva                       0                       # Number of times TLB was flushed by MVA
system.cpu0.dtb.flush_tlb_mva_asid                  0                       # Number of times TLB was flushed by MVA & ASID
system.cpu0.dtb.flush_tlb_asid                      0                       # Number of times TLB was flushed by ASID
system.cpu0.dtb.flush_entries                       0                       # Number of entries that have been flushed from TLB
system.cpu0.dtb.align_faults                        0                       # Number of TLB faults due to alignment restrictions
system.cpu0.dtb.prefetch_faults                     0                       # Number of TLB faults due to prefetch
system.cpu0.dtb.domain_faults                       0                       # Number of TLB faults due to domain restrictions
system.cpu0.dtb.perms_faults                        0                       # Number of TLB faults due to permissions restrictions
system.cpu0.dtb.read_accesses                       0                       # DTB read accesses
system.cpu0.dtb.write_accesses                      0                       # DTB write accesses
system.cpu0.dtb.inst_accesses                       0                       # ITB inst accesses
system.cpu0.dtb.hits                                0                       # DTB hits
system.cpu0.dtb.misses                              0                       # DTB misses
system.cpu0.dtb.accesses                            0                       # DTB accesses
system.cpu0.istage2_mmu.stage2_tlb.walker.walks            0                       # Table walker walks requested
system.cpu0.istage2_mmu.stage2_tlb.walker.walkRequestOrigin_Requested::Data            0                       # Table walker requests started/completed, data/inst
system.cpu0.istage2_mmu.stage2_tlb.walker.walkRequestOrigin_Requested::Inst            0                       # Table walker requests started/completed, data/inst
system.cpu0.istage2_mmu.stage2_tlb.walker.walkRequestOrigin_Requested::total            0                       # Table walker requests started/completed, data/inst
system.cpu0.istage2_mmu.stage2_tlb.walker.walkRequestOrigin_Completed::Data            0                       # Table walker requests started/completed, data/inst
system.cpu0.istage2_mmu.stage2_tlb.walker.walkRequestOrigin_Completed::Inst            0                       # Table walker requests started/completed, data/inst
system.cpu0.istage2_mmu.stage2_tlb.walker.walkRequestOrigin_Completed::total            0                       # Table walker requests started/completed, data/inst
system.cpu0.istage2_mmu.stage2_tlb.walker.walkRequestOrigin::total            0                       # Table walker requests started/completed, data/inst
system.cpu0.istage2_mmu.stage2_tlb.inst_hits            0                       # ITB inst hits
system.cpu0.istage2_mmu.stage2_tlb.inst_misses            0                       # ITB inst misses
system.cpu0.istage2_mmu.stage2_tlb.read_hits            0                       # DTB read hits
system.cpu0.istage2_mmu.stage2_tlb.read_misses            0                       # DTB read misses
system.cpu0.istage2_mmu.stage2_tlb.write_hits            0                       # DTB write hits
system.cpu0.istage2_mmu.stage2_tlb.write_misses            0                       # DTB write misses
system.cpu0.istage2_mmu.stage2_tlb.flush_tlb            0                       # Number of times complete TLB was flushed
system.cpu0.istage2_mmu.stage2_tlb.flush_tlb_mva            0                       # Number of times TLB was flushed by MVA
system.cpu0.istage2_mmu.stage2_tlb.flush_tlb_mva_asid            0                       # Number of times TLB was flushed by MVA & ASID
system.cpu0.istage2_mmu.stage2_tlb.flush_tlb_asid            0                       # Number of times TLB was flushed by ASID
system.cpu0.istage2_mmu.stage2_tlb.flush_entries            0                       # Number of entries that have been flushed from TLB
system.cpu0.istage2_mmu.stage2_tlb.align_faults            0                       # Number of TLB faults due to alignment restrictions
system.cpu0.istage2_mmu.stage2_tlb.prefetch_faults            0                       # Number of TLB faults due to prefetch
system.cpu0.istage2_mmu.stage2_tlb.domain_faults            0                       # Number of TLB faults due to domain restrictions
system.cpu0.istage2_mmu.stage2_tlb.perms_faults            0                       # Number of TLB faults due to permissions restrictions
system.cpu0.istage2_mmu.stage2_tlb.read_accesses            0                       # DTB read accesses
system.cpu0.istage2_mmu.stage2_tlb.write_accesses            0                       # DTB write accesses
system.cpu0.istage2_mmu.stage2_tlb.inst_accesses            0                       # ITB inst accesses
system.cpu0.istage2_mmu.stage2_tlb.hits             0                       # DTB hits
system.cpu0.istage2_mmu.stage2_tlb.misses            0                       # DTB misses
system.cpu0.istage2_mmu.stage2_tlb.accesses            0                       # DTB accesses
system.cpu0.itb.walker.walks                        0                       # Table walker walks requested
system.cpu0.itb.walker.walkRequestOrigin_Requested::Data            0                       # Table walker requests started/completed, data/inst
system.cpu0.itb.walker.walkRequestOrigin_Requested::Inst            0                       # Table walker requests started/completed, data/inst
system.cpu0.itb.walker.walkRequestOrigin_Requested::total            0                       # Table walker requests started/completed, data/inst
system.cpu0.itb.walker.walkRequestOrigin_Completed::Data            0                       # Table walker requests started/completed, data/inst
system.cpu0.itb.walker.walkRequestOrigin_Completed::Inst            0                       # Table walker requests started/completed, data/inst
system.cpu0.itb.walker.walkRequestOrigin_Completed::total            0                       # Table walker requests started/completed, data/inst
system.cpu0.itb.walker.walkRequestOrigin::total            0                       # Table walker requests started/completed, data/inst
system.cpu0.itb.inst_hits                           0                       # ITB inst hits
system.cpu0.itb.inst_misses                         0                       # ITB inst misses
system.cpu0.itb.read_hits                           0                       # DTB read hits
system.cpu0.itb.read_misses                         0                       # DTB read misses
system.cpu0.itb.write_hits                          0                       # DTB write hits
system.cpu0.itb.write_misses                        0                       # DTB write misses
system.cpu0.itb.flush_tlb                           0                       # Number of times complete TLB was flushed
system.cpu0.itb.flush_tlb_mva                       0                       # Number of times TLB was flushed by MVA
system.cpu0.itb.flush_tlb_mva_asid                  0                       # Number of times TLB was flushed by MVA & ASID
system.cpu0.itb.flush_tlb_asid                      0                       # Number of times TLB was flushed by ASID
system.cpu0.itb.flush_entries                       0                       # Number of entries that have been flushed from TLB
system.cpu0.itb.align_faults                        0                       # Number of TLB faults due to alignment restrictions
system.cpu0.itb.prefetch_faults                     0                       # Number of TLB faults due to prefetch
system.cpu0.itb.domain_faults                       0                       # Number of TLB faults due to domain restrictions
system.cpu0.itb.perms_faults                        0                       # Number of TLB faults due to permissions restrictions
system.cpu0.itb.read_accesses                       0                       # DTB read accesses
system.cpu0.itb.write_accesses                      0                       # DTB write accesses
system.cpu0.itb.inst_accesses                       0                       # ITB inst accesses
system.cpu0.itb.hits                                0                       # DTB hits
system.cpu0.itb.misses                              0                       # DTB misses
system.cpu0.itb.accesses                            0                       # DTB accesses
system.cpu0.workload.num_syscalls                8478                       # Number of system calls
system.cpu0.numCycles                         9799914                       # number of cpu cycles simulated
system.cpu0.numWorkItemsStarted                     0                       # number of work items this cpu started
system.cpu0.numWorkItemsCompleted                   0                       # number of work items this cpu completed
system.cpu0.fetch.icacheStallCycles             13053                       # Number of cycles fetch is stalled on an Icache miss
system.cpu0.fetch.Insts                      24437813                       # Number of instructions fetch has processed
system.cpu0.fetch.Branches                    4889362                       # Number of branches that fetch encountered
system.cpu0.fetch.predictedBranches           4884935                       # Number of branches that fetch has predicted taken
system.cpu0.fetch.Cycles                      9778686                       # Number of cycles fetch has run and was not squashing or blocked
system.cpu0.fetch.SquashCycles                   1564                       # Number of cycles fetch has spent squashing
system.cpu0.fetch.PendingTrapStallCycles          165                       # Number of stall cycles due to pending traps
system.cpu0.fetch.CacheLines                     6931                       # Number of cache lines fetched
system.cpu0.fetch.IcacheSquashes                  274                       # Number of outstanding Icache misses that were squashed
system.cpu0.fetch.rateDist::samples           9792686                       # Number of instructions fetched each cycle (Total)
system.cpu0.fetch.rateDist::mean             2.496028                       # Number of instructions fetched each cycle (Total)
system.cpu0.fetch.rateDist::stdev            0.510458                       # Number of instructions fetched each cycle (Total)
system.cpu0.fetch.rateDist::underflows              0      0.00%      0.00% # Number of instructions fetched each cycle (Total)
system.cpu0.fetch.rateDist::0                   16331      0.17%      0.17% # Number of instructions fetched each cycle (Total)
system.cpu0.fetch.rateDist::1                    2824      0.03%      0.20% # Number of instructions fetched each cycle (Total)
system.cpu0.fetch.rateDist::2                 4880601     49.84%     50.03% # Number of instructions fetched each cycle (Total)
system.cpu0.fetch.rateDist::3                 4892930     49.97%    100.00% # Number of instructions fetched each cycle (Total)
system.cpu0.fetch.rateDist::overflows               0      0.00%    100.00% # Number of instructions fetched each cycle (Total)
system.cpu0.fetch.rateDist::min_value               0                       # Number of instructions fetched each cycle (Total)
system.cpu0.fetch.rateDist::max_value               3                       # Number of instructions fetched each cycle (Total)
system.cpu0.fetch.rateDist::total             9792686                       # Number of instructions fetched each cycle (Total)
system.cpu0.fetch.branchRate                 0.498919                       # Number of branch fetches per cycle
system.cpu0.fetch.rate                       2.493676                       # Number of inst fetches per cycle
system.cpu0.decode.IdleCycles                   11962                       # Number of cycles decode is idle
system.cpu0.decode.BlockedCycles                 4866                       # Number of cycles decode is blocked
system.cpu0.decode.RunCycles                  9774679                       # Number of cycles decode is running
system.cpu0.decode.UnblockCycles                  581                       # Number of cycles decode is unblocking
system.cpu0.decode.SquashCycles                   598                       # Number of cycles decode is squashing
system.cpu0.decode.BranchResolved                2464                       # Number of times decode resolved a branch
system.cpu0.decode.BranchMispred                  204                       # Number of times decode detected a branch misprediction
system.cpu0.decode.DecodedInsts              24439893                       # Number of instructions handled by decode
system.cpu0.decode.SquashedInsts                  414                       # Number of squashed instructions handled by decode
system.cpu0.rename.SquashCycles                   598                       # Number of cycles rename is squashing
system.cpu0.rename.IdleCycles                   12630                       # Number of cycles rename is idle
system.cpu0.rename.BlockCycles                    522                       # Number of cycles rename is blocking
system.cpu0.rename.serializeStallCycles          1972                       # count of cycles rename stalled for serializing inst
system.cpu0.rename.RunCycles                  9774510                       # Number of cycles rename is running
system.cpu0.rename.UnblockCycles                 2454                       # Number of cycles rename is unblocking
system.cpu0.rename.RenamedInsts              24438813                       # Number of instructions processed by rename
system.cpu0.rename.SQFullEvents                  2349                       # Number of times rename has blocked due to SQ full
system.cpu0.rename.RenamedOperands           24440881                       # Number of destination operands rename has renamed
system.cpu0.rename.RenameLookups            112405124                       # Number of register rename lookups that rename has made
system.cpu0.rename.int_rename_lookups        24440742                       # Number of integer rename lookups
system.cpu0.rename.fp_rename_lookups               16                       # Number of floating rename lookups
system.cpu0.rename.CommittedMaps             24432485                       # Number of HB maps that are committed
system.cpu0.rename.UndoneMaps                    8367                       # Number of HB maps that are undone due to squashing
system.cpu0.rename.serializingInsts                52                       # count of serializing insts renamed
system.cpu0.rename.tempSerializingInsts            53                       # count of temporary serializing insts renamed
system.cpu0.rename.skidInsts                     1091                       # count of insts added to the skid buffer
system.cpu0.memDep0.insertedLoads             9760203                       # Number of loads inserted to the mem dependence unit.
system.cpu0.memDep0.insertedStores            4883674                       # Number of stores inserted to the mem dependence unit.
system.cpu0.memDep0.conflictingLoads          4877667                       # Number of conflicting loads.
system.cpu0.memDep0.conflictingStores         4877606                       # Number of conflicting stores.
system.cpu0.iq.iqInstsAdded                  24436768                       # Number of instructions added to the IQ (excludes non-spec)
system.cpu0.iq.iqNonSpecInstsAdded                 76                       # Number of non-speculative instructions added to the IQ
system.cpu0.iq.iqInstsIssued                 24434959                       # Number of instructions issued
system.cpu0.iq.iqSquashedInstsIssued              187                       # Number of squashed instructions issued
system.cpu0.iq.iqSquashedInstsExamined           5371                       # Number of squashed instructions iterated over during squash; mainly for profiling
system.cpu0.iq.iqSquashedOperandsExamined        13044                       # Number of squashed operands that are examined and possibly removed from graph
system.cpu0.iq.iqSquashedNonSpecRemoved             8                       # Number of squashed non-spec instructions that were removed
system.cpu0.iq.issued_per_cycle::samples      9792686                       # Number of insts issued each cycle
system.cpu0.iq.issued_per_cycle::mean        2.495225                       # Number of insts issued each cycle
system.cpu0.iq.issued_per_cycle::stdev       0.713969                       # Number of insts issued each cycle
system.cpu0.iq.issued_per_cycle::underflows            0      0.00%      0.00% # Number of insts issued each cycle
system.cpu0.iq.issued_per_cycle::0              15224      0.16%      0.16% # Number of insts issued each cycle
system.cpu0.iq.issued_per_cycle::1            1226274     12.52%     12.68% # Number of insts issued each cycle
system.cpu0.iq.issued_per_cycle::2            2444879     24.97%     37.64% # Number of insts issued each cycle
system.cpu0.iq.issued_per_cycle::3            6106309     62.36%    100.00% # Number of insts issued each cycle
system.cpu0.iq.issued_per_cycle::overflows            0      0.00%    100.00% # Number of insts issued each cycle
system.cpu0.iq.issued_per_cycle::min_value            0                       # Number of insts issued each cycle
system.cpu0.iq.issued_per_cycle::max_value            3                       # Number of insts issued each cycle
system.cpu0.iq.issued_per_cycle::total        9792686                       # Number of insts issued each cycle
system.cpu0.iq.fu_full::No_OpClass                  0                       # attempts to use FU when none available
system.cpu0.iq.fu_full::IntAlu                      0                       # attempts to use FU when none available
system.cpu0.iq.fu_full::IntMult                     0                       # attempts to use FU when none available
system.cpu0.iq.fu_full::IntDiv                      0                       # attempts to use FU when none available
system.cpu0.iq.fu_full::FloatAdd                    0                       # attempts to use FU when none available
system.cpu0.iq.fu_full::FloatCmp                    0                       # attempts to use FU when none available
system.cpu0.iq.fu_full::FloatCvt                    0                       # attempts to use FU when none available
system.cpu0.iq.fu_full::FloatMult                   0                       # attempts to use FU when none available
system.cpu0.iq.fu_full::FloatDiv                    0                       # attempts to use FU when none available
system.cpu0.iq.fu_full::FloatSqrt                   0                       # attempts to use FU when none available
system.cpu0.iq.fu_full::SimdAdd                     0                       # attempts to use FU when none available
system.cpu0.iq.fu_full::SimdAddAcc                  0                       # attempts to use FU when none available
system.cpu0.iq.fu_full::SimdAlu                     0                       # attempts to use FU when none available
system.cpu0.iq.fu_full::SimdCmp                     0                       # attempts to use FU when none available
system.cpu0.iq.fu_full::SimdCvt                     0                       # attempts to use FU when none available
system.cpu0.iq.fu_full::SimdMisc                    0                       # attempts to use FU when none available
system.cpu0.iq.fu_full::SimdMult                    0                       # attempts to use FU when none available
system.cpu0.iq.fu_full::SimdMultAcc                 0                       # attempts to use FU when none available
system.cpu0.iq.fu_full::SimdShift                   0                       # attempts to use FU when none available
system.cpu0.iq.fu_full::SimdShiftAcc                0                       # attempts to use FU when none available
system.cpu0.iq.fu_full::SimdSqrt                    0                       # attempts to use FU when none available
system.cpu0.iq.fu_full::SimdFloatAdd                0                       # attempts to use FU when none available
system.cpu0.iq.fu_full::SimdFloatAlu                0                       # attempts to use FU when none available
system.cpu0.iq.fu_full::SimdFloatCmp                0                       # attempts to use FU when none available
system.cpu0.iq.fu_full::SimdFloatCvt                0                       # attempts to use FU when none available
system.cpu0.iq.fu_full::SimdFloatDiv                0                       # attempts to use FU when none available
system.cpu0.iq.fu_full::SimdFloatMisc               0                       # attempts to use FU when none available
system.cpu0.iq.fu_full::SimdFloatMult               0                       # attempts to use FU when none available
system.cpu0.iq.fu_full::SimdFloatMultAcc            0                       # attempts to use FU when none available
system.cpu0.iq.fu_full::SimdFloatSqrt               0                       # attempts to use FU when none available
system.cpu0.iq.fu_full::MemRead                     0                       # attempts to use FU when none available
system.cpu0.iq.fu_full::MemWrite                    0                       # attempts to use FU when none available
system.cpu0.iq.fu_full::IprAccess                   0                       # attempts to use FU when none available
system.cpu0.iq.fu_full::InstPrefetch                0                       # attempts to use FU when none available
system.cpu0.iq.FU_type_0::No_OpClass                0      0.00%      0.00% # Type of FU issued
system.cpu0.iq.FU_type_0::IntAlu              9791545     40.07%     40.07% # Type of FU issued
system.cpu0.iq.FU_type_0::IntMult                   6      0.00%     40.07% # Type of FU issued
system.cpu0.iq.FU_type_0::IntDiv                    0      0.00%     40.07% # Type of FU issued
system.cpu0.iq.FU_type_0::FloatAdd                  0      0.00%     40.07% # Type of FU issued
system.cpu0.iq.FU_type_0::FloatCmp                  0      0.00%     40.07% # Type of FU issued
system.cpu0.iq.FU_type_0::FloatCvt                  0      0.00%     40.07% # Type of FU issued
system.cpu0.iq.FU_type_0::FloatMult                 0      0.00%     40.07% # Type of FU issued
system.cpu0.iq.FU_type_0::FloatDiv                  0      0.00%     40.07% # Type of FU issued
system.cpu0.iq.FU_type_0::FloatSqrt                 0      0.00%     40.07% # Type of FU issued
system.cpu0.iq.FU_type_0::SimdAdd                   0      0.00%     40.07% # Type of FU issued
system.cpu0.iq.FU_type_0::SimdAddAcc                0      0.00%     40.07% # Type of FU issued
system.cpu0.iq.FU_type_0::SimdAlu                   0      0.00%     40.07% # Type of FU issued
system.cpu0.iq.FU_type_0::SimdCmp                   0      0.00%     40.07% # Type of FU issued
system.cpu0.iq.FU_type_0::SimdCvt                   0      0.00%     40.07% # Type of FU issued
system.cpu0.iq.FU_type_0::SimdMisc                  0      0.00%     40.07% # Type of FU issued
system.cpu0.iq.FU_type_0::SimdMult                  0      0.00%     40.07% # Type of FU issued
system.cpu0.iq.FU_type_0::SimdMultAcc               0      0.00%     40.07% # Type of FU issued
system.cpu0.iq.FU_type_0::SimdShift                 0      0.00%     40.07% # Type of FU issued
system.cpu0.iq.FU_type_0::SimdShiftAcc              0      0.00%     40.07% # Type of FU issued
system.cpu0.iq.FU_type_0::SimdSqrt                  0      0.00%     40.07% # Type of FU issued
system.cpu0.iq.FU_type_0::SimdFloatAdd              0      0.00%     40.07% # Type of FU issued
system.cpu0.iq.FU_type_0::SimdFloatAlu              0      0.00%     40.07% # Type of FU issued
system.cpu0.iq.FU_type_0::SimdFloatCmp              0      0.00%     40.07% # Type of FU issued
system.cpu0.iq.FU_type_0::SimdFloatCvt              0      0.00%     40.07% # Type of FU issued
system.cpu0.iq.FU_type_0::SimdFloatDiv              0      0.00%     40.07% # Type of FU issued
system.cpu0.iq.FU_type_0::SimdFloatMisc             3      0.00%     40.07% # Type of FU issued
system.cpu0.iq.FU_type_0::SimdFloatMult             0      0.00%     40.07% # Type of FU issued
system.cpu0.iq.FU_type_0::SimdFloatMultAcc            0      0.00%     40.07% # Type of FU issued
system.cpu0.iq.FU_type_0::SimdFloatSqrt             0      0.00%     40.07% # Type of FU issued
system.cpu0.iq.FU_type_0::MemRead             9759960     39.94%     80.01% # Type of FU issued
system.cpu0.iq.FU_type_0::MemWrite            4883445     19.99%    100.00% # Type of FU issued
system.cpu0.iq.FU_type_0::IprAccess                 0      0.00%    100.00% # Type of FU issued
system.cpu0.iq.FU_type_0::InstPrefetch              0      0.00%    100.00% # Type of FU issued
system.cpu0.iq.FU_type_0::total              24434959                       # Type of FU issued
system.cpu0.iq.rate                          2.493385                       # Inst issue rate
system.cpu0.iq.fu_busy_cnt                          0                       # FU busy when requested
system.cpu0.iq.fu_busy_rate                         0                       # FU busy rate (busy events/executed inst)
system.cpu0.iq.int_inst_queue_reads          58662756                       # Number of integer instruction queue reads
system.cpu0.iq.int_inst_queue_writes         24442229                       # Number of integer instruction queue writes
system.cpu0.iq.int_inst_queue_wakeup_accesses     24433721                       # Number of integer instruction queue wakeup accesses
system.cpu0.iq.fp_inst_queue_reads                 32                       # Number of floating instruction queue reads
system.cpu0.iq.fp_inst_queue_writes                16                       # Number of floating instruction queue writes
system.cpu0.iq.fp_inst_queue_wakeup_accesses           16                       # Number of floating instruction queue wakeup accesses
system.cpu0.iq.int_alu_accesses              24434943                       # Number of integer alu accesses
system.cpu0.iq.fp_alu_accesses                     16                       # Number of floating point alu accesses
system.cpu0.iew.lsq.thread0.forwLoads         4877696                       # Number of loads that had data forwarded from stores
system.cpu0.iew.lsq.thread0.invAddrLoads            0                       # Number of loads ignored due to an invalid address
system.cpu0.iew.lsq.thread0.squashedLoads         1375                       # Number of loads squashed
system.cpu0.iew.lsq.thread0.ignoredResponses            1                       # Number of memory responses ignored because the instruction is squashed
system.cpu0.iew.lsq.thread0.memOrderViolation           30                       # Number of memory ordering violations
system.cpu0.iew.lsq.thread0.squashedStores          541                       # Number of stores squashed
system.cpu0.iew.lsq.thread0.invAddrSwpfs            0                       # Number of software prefetches ignored due to an invalid address
system.cpu0.iew.lsq.thread0.blockedLoads            0                       # Number of blocked loads due to partial load-store forwarding
system.cpu0.iew.lsq.thread0.rescheduledLoads            1                       # Number of loads that were rescheduled
system.cpu0.iew.lsq.thread0.cacheBlocked            9                       # Number of times an access to memory failed due to the cache being blocked
system.cpu0.iew.iewIdleCycles                       0                       # Number of cycles IEW is idle
system.cpu0.iew.iewSquashCycles                   598                       # Number of cycles IEW is squashing
system.cpu0.iew.iewBlockCycles                    412                       # Number of cycles IEW is blocking
system.cpu0.iew.iewUnblockCycles                  115                       # Number of cycles IEW is unblocking
system.cpu0.iew.iewDispatchedInsts           24436864                       # Number of instructions dispatched to IQ
system.cpu0.iew.iewDispSquashedInsts              424                       # Number of squashed instructions skipped by dispatch
system.cpu0.iew.iewDispLoadInsts              9760203                       # Number of dispatched load instructions
system.cpu0.iew.iewDispStoreInsts             4883674                       # Number of dispatched store instructions
system.cpu0.iew.iewDispNonSpecInsts                48                       # Number of dispatched non-speculative instructions
system.cpu0.iew.iewIQFullEvents                     2                       # Number of times the IQ has become full, causing a stall
system.cpu0.iew.iewLSQFullEvents                    0                       # Number of times the LSQ has become full, causing a stall
system.cpu0.iew.memOrderViolationEvents            30                       # Number of memory order violations
system.cpu0.iew.predictedTakenIncorrect            80                       # Number of branches that were predicted taken incorrectly
system.cpu0.iew.predictedNotTakenIncorrect          514                       # Number of branches that were predicted not taken incorrectly
system.cpu0.iew.branchMispredicts                 594                       # Number of branch mispredicts detected at execute
system.cpu0.iew.iewExecutedInsts             24434257                       # Number of executed instructions
system.cpu0.iew.iewExecLoadInsts              9759739                       # Number of load instructions executed
system.cpu0.iew.iewExecSquashedInsts              699                       # Number of squashed instructions skipped in execute
system.cpu0.iew.exec_swp                            0                       # number of swp insts executed
system.cpu0.iew.exec_nop                           20                       # number of nop insts executed
system.cpu0.iew.exec_refs                    14643057                       # number of memory reference insts executed
system.cpu0.iew.exec_branches                 4887839                       # Number of branches executed
system.cpu0.iew.exec_stores                   4883318                       # Number of stores executed
system.cpu0.iew.exec_rate                    2.493313                       # Inst execution rate
system.cpu0.iew.wb_sent                      24433824                       # cumulative count of insts sent to commit
system.cpu0.iew.wb_count                     24433737                       # cumulative count of insts written-back
system.cpu0.iew.wb_producers                 14655889                       # num instructions producing a value
system.cpu0.iew.wb_consumers                 14667235                       # num instructions consuming a value
system.cpu0.iew.wb_penalized                        0                       # number of instrctions required to write to 'other' IQ
system.cpu0.iew.wb_rate                      2.493260                       # insts written-back per cycle
system.cpu0.iew.wb_fanout                    0.999226                       # average fanout of values written-back
system.cpu0.iew.wb_penalized_rate                   0                       # fraction of instructions written-back that wrote to 'other' IQ
system.cpu0.commit.commitSquashedInsts           5391                       # The number of squashed insts skipped by commit
system.cpu0.commit.commitNonSpecStalls             68                       # The number of times commit has been forced to stall to communicate backwards
system.cpu0.commit.branchMispredicts              557                       # The number of times a branch was mispredicted
system.cpu0.commit.committed_per_cycle::samples      9791701                       # Number of insts commited each cycle
system.cpu0.commit.committed_per_cycle::mean     2.495118                       # Number of insts commited each cycle
system.cpu0.commit.committed_per_cycle::stdev     1.582485                       # Number of insts commited each cycle
system.cpu0.commit.committed_per_cycle::underflows            0      0.00%      0.00% # Number of insts commited each cycle
system.cpu0.commit.committed_per_cycle::0        16289      0.17%      0.17% # Number of insts commited each cycle
system.cpu0.commit.committed_per_cycle::1      4886125     49.90%     50.07% # Number of insts commited each cycle
system.cpu0.commit.committed_per_cycle::2         3357      0.03%     50.10% # Number of insts commited each cycle
system.cpu0.commit.committed_per_cycle::3      1225217     12.51%     62.61% # Number of insts commited each cycle
system.cpu0.commit.committed_per_cycle::4      2441011     24.93%     87.54% # Number of insts commited each cycle
system.cpu0.commit.committed_per_cycle::5      1219507     12.45%    100.00% # Number of insts commited each cycle
system.cpu0.commit.committed_per_cycle::6           68      0.00%    100.00% # Number of insts commited each cycle
system.cpu0.commit.committed_per_cycle::7           42      0.00%    100.00% # Number of insts commited each cycle
system.cpu0.commit.committed_per_cycle::8           85      0.00%    100.00% # Number of insts commited each cycle
system.cpu0.commit.committed_per_cycle::overflows            0      0.00%    100.00% # Number of insts commited each cycle
system.cpu0.commit.committed_per_cycle::min_value            0                       # Number of insts commited each cycle
system.cpu0.commit.committed_per_cycle::max_value            8                       # Number of insts commited each cycle
system.cpu0.commit.committed_per_cycle::total      9791701                       # Number of insts commited each cycle
system.cpu0.commit.committedInsts            24428154                       # Number of instructions committed
system.cpu0.commit.committedOps              24431451                       # Number of ops (including micro ops) committed
system.cpu0.commit.swp_count                        0                       # Number of s/w prefetches committed
system.cpu0.commit.refs                      14641949                       # Number of memory references committed
system.cpu0.commit.loads                      9758820                       # Number of loads committed
system.cpu0.commit.membars                         28                       # Number of memory barriers committed
system.cpu0.commit.branches                   4887478                       # Number of branches committed
system.cpu0.commit.fp_insts                        16                       # Number of committed floating point instructions.
system.cpu0.commit.int_insts                 19548430                       # Number of committed integer instructions.
system.cpu0.commit.function_calls                2186                       # Number of function calls committed.
system.cpu0.commit.op_class_0::No_OpClass            0      0.00%      0.00% # Class of committed instruction
system.cpu0.commit.op_class_0::IntAlu         9789493     40.07%     40.07% # Class of committed instruction
system.cpu0.commit.op_class_0::IntMult              6      0.00%     40.07% # Class of committed instruction
system.cpu0.commit.op_class_0::IntDiv               0      0.00%     40.07% # Class of committed instruction
system.cpu0.commit.op_class_0::FloatAdd             0      0.00%     40.07% # Class of committed instruction
system.cpu0.commit.op_class_0::FloatCmp             0      0.00%     40.07% # Class of committed instruction
system.cpu0.commit.op_class_0::FloatCvt             0      0.00%     40.07% # Class of committed instruction
system.cpu0.commit.op_class_0::FloatMult            0      0.00%     40.07% # Class of committed instruction
system.cpu0.commit.op_class_0::FloatDiv             0      0.00%     40.07% # Class of committed instruction
system.cpu0.commit.op_class_0::FloatSqrt            0      0.00%     40.07% # Class of committed instruction
system.cpu0.commit.op_class_0::SimdAdd              0      0.00%     40.07% # Class of committed instruction
system.cpu0.commit.op_class_0::SimdAddAcc            0      0.00%     40.07% # Class of committed instruction
system.cpu0.commit.op_class_0::SimdAlu              0      0.00%     40.07% # Class of committed instruction
system.cpu0.commit.op_class_0::SimdCmp              0      0.00%     40.07% # Class of committed instruction
system.cpu0.commit.op_class_0::SimdCvt              0      0.00%     40.07% # Class of committed instruction
system.cpu0.commit.op_class_0::SimdMisc             0      0.00%     40.07% # Class of committed instruction
system.cpu0.commit.op_class_0::SimdMult             0      0.00%     40.07% # Class of committed instruction
system.cpu0.commit.op_class_0::SimdMultAcc            0      0.00%     40.07% # Class of committed instruction
system.cpu0.commit.op_class_0::SimdShift            0      0.00%     40.07% # Class of committed instruction
system.cpu0.commit.op_class_0::SimdShiftAcc            0      0.00%     40.07% # Class of committed instruction
system.cpu0.commit.op_class_0::SimdSqrt             0      0.00%     40.07% # Class of committed instruction
system.cpu0.commit.op_class_0::SimdFloatAdd            0      0.00%     40.07% # Class of committed instruction
system.cpu0.commit.op_class_0::SimdFloatAlu            0      0.00%     40.07% # Class of committed instruction
system.cpu0.commit.op_class_0::SimdFloatCmp            0      0.00%     40.07% # Class of committed instruction
system.cpu0.commit.op_class_0::SimdFloatCvt            0      0.00%     40.07% # Class of committed instruction
system.cpu0.commit.op_class_0::SimdFloatDiv            0      0.00%     40.07% # Class of committed instruction
system.cpu0.commit.op_class_0::SimdFloatMisc            3      0.00%     40.07% # Class of committed instruction
system.cpu0.commit.op_class_0::SimdFloatMult            0      0.00%     40.07% # Class of committed instruction
system.cpu0.commit.op_class_0::SimdFloatMultAcc            0      0.00%     40.07% # Class of committed instruction
system.cpu0.commit.op_class_0::SimdFloatSqrt            0      0.00%     40.07% # Class of committed instruction
system.cpu0.commit.op_class_0::MemRead        9758820     39.94%     80.01% # Class of committed instruction
system.cpu0.commit.op_class_0::MemWrite       4883129     19.99%    100.00% # Class of committed instruction
system.cpu0.commit.op_class_0::IprAccess            0      0.00%    100.00% # Class of committed instruction
system.cpu0.commit.op_class_0::InstPrefetch            0      0.00%    100.00% # Class of committed instruction
system.cpu0.commit.op_class_0::total         24431451                       # Class of committed instruction
system.cpu0.commit.bw_lim_events                   85                       # number cycles where commit BW limit reached
system.cpu0.rob.rob_reads                    34228301                       # The number of ROB reads
system.cpu0.rob.rob_writes                   48874699                       # The number of ROB writes
system.cpu0.timesIdled                            228                       # Number of times that the entire CPU went into an idle state and unscheduled itself
system.cpu0.idleCycles                           7228                       # Total number of cycles that the CPU has spent unscheduled due to idling
system.cpu0.committedInsts                   24428154                       # Number of Instructions Simulated
system.cpu0.committedOps                     24431451                       # Number of Ops (including micro ops) Simulated
system.cpu0.cpi                              0.401173                       # CPI: Cycles Per Instruction
system.cpu0.cpi_total                        0.401173                       # CPI: Total CPI of All Threads
system.cpu0.ipc                              2.492691                       # IPC: Instructions Per Cycle
system.cpu0.ipc_total                        2.492691                       # IPC: Total IPC of All Threads
system.cpu0.int_regfile_reads                24432818                       # number of integer regfile reads
system.cpu0.int_regfile_writes                9782160                       # number of integer regfile writes
system.cpu0.fp_regfile_reads                      336                       # number of floating regfile reads
system.cpu0.cc_regfile_reads                102580330                       # number of cc regfile reads
system.cpu0.cc_regfile_writes                14652829                       # number of cc regfile writes
system.cpu0.misc_regfile_reads               14833379                       # number of misc regfile reads
system.cpu0.misc_regfile_writes                    56                       # number of misc regfile writes
system.cpu0.dcache.tags.replacements              595                       # number of replacements
system.cpu0.dcache.tags.tagsinuse          210.591893                       # Cycle average of tags in use
system.cpu0.dcache.tags.total_refs            9759054                       # Total number of references to valid blocks.
system.cpu0.dcache.tags.sampled_refs              786                       # Sample count of references to valid blocks.
system.cpu0.dcache.tags.avg_refs         12416.099237                       # Average number of references to valid blocks.
system.cpu0.dcache.tags.warmup_cycle         26875000                       # Cycle when the warmup percentage was hit.
system.cpu0.dcache.tags.occ_blocks::cpu0.data   210.591893                       # Average occupied blocks per requestor
system.cpu0.dcache.tags.occ_percent::cpu0.data     0.411312                       # Average percentage of cache occupancy
system.cpu0.dcache.tags.occ_percent::total     0.411312                       # Average percentage of cache occupancy
system.cpu0.dcache.tags.occ_task_id_blocks::1024          191                       # Occupied blocks per task id
system.cpu0.dcache.tags.age_task_id_blocks_1024::3          191                       # Occupied blocks per task id
system.cpu0.dcache.tags.occ_task_id_percent::1024     0.373047                       # Percentage of cache occupancy per task id
system.cpu0.dcache.tags.tag_accesses         19531002                       # Number of tag accesses
system.cpu0.dcache.tags.data_accesses        19531002                       # Number of data accesses
system.cpu0.dcache.ReadReq_hits::cpu0.data      4881621                       # number of ReadReq hits
system.cpu0.dcache.ReadReq_hits::total        4881621                       # number of ReadReq hits
system.cpu0.dcache.WriteReq_hits::cpu0.data      4878642                       # number of WriteReq hits
system.cpu0.dcache.WriteReq_hits::total       4878642                       # number of WriteReq hits
system.cpu0.dcache.LoadLockedReq_hits::cpu0.data           26                       # number of LoadLockedReq hits
system.cpu0.dcache.LoadLockedReq_hits::total           26                       # number of LoadLockedReq hits
system.cpu0.dcache.StoreCondReq_hits::cpu0.data           27                       # number of StoreCondReq hits
system.cpu0.dcache.StoreCondReq_hits::total           27                       # number of StoreCondReq hits
system.cpu0.dcache.demand_hits::cpu0.data      9760263                       # number of demand (read+write) hits
system.cpu0.dcache.demand_hits::total         9760263                       # number of demand (read+write) hits
system.cpu0.dcache.overall_hits::cpu0.data      9760263                       # number of overall hits
system.cpu0.dcache.overall_hits::total        9760263                       # number of overall hits
system.cpu0.dcache.ReadReq_misses::cpu0.data          210                       # number of ReadReq misses
system.cpu0.dcache.ReadReq_misses::total          210                       # number of ReadReq misses
system.cpu0.dcache.WriteReq_misses::cpu0.data         4416                       # number of WriteReq misses
system.cpu0.dcache.WriteReq_misses::total         4416                       # number of WriteReq misses
system.cpu0.dcache.LoadLockedReq_misses::cpu0.data            5                       # number of LoadLockedReq misses
system.cpu0.dcache.LoadLockedReq_misses::total            5                       # number of LoadLockedReq misses
system.cpu0.dcache.demand_misses::cpu0.data         4626                       # number of demand (read+write) misses
system.cpu0.dcache.demand_misses::total          4626                       # number of demand (read+write) misses
system.cpu0.dcache.overall_misses::cpu0.data         4626                       # number of overall misses
system.cpu0.dcache.overall_misses::total         4626                       # number of overall misses
system.cpu0.dcache.ReadReq_miss_latency::cpu0.data      8554487                       # number of ReadReq miss cycles
system.cpu0.dcache.ReadReq_miss_latency::total      8554487                       # number of ReadReq miss cycles
system.cpu0.dcache.WriteReq_miss_latency::cpu0.data    220650999                       # number of WriteReq miss cycles
system.cpu0.dcache.WriteReq_miss_latency::total    220650999                       # number of WriteReq miss cycles
system.cpu0.dcache.LoadLockedReq_miss_latency::cpu0.data       171500                       # number of LoadLockedReq miss cycles
system.cpu0.dcache.LoadLockedReq_miss_latency::total       171500                       # number of LoadLockedReq miss cycles
system.cpu0.dcache.demand_miss_latency::cpu0.data    229205486                       # number of demand (read+write) miss cycles
system.cpu0.dcache.demand_miss_latency::total    229205486                       # number of demand (read+write) miss cycles
system.cpu0.dcache.overall_miss_latency::cpu0.data    229205486                       # number of overall miss cycles
system.cpu0.dcache.overall_miss_latency::total    229205486                       # number of overall miss cycles
system.cpu0.dcache.ReadReq_accesses::cpu0.data      4881831                       # number of ReadReq accesses(hits+misses)
system.cpu0.dcache.ReadReq_accesses::total      4881831                       # number of ReadReq accesses(hits+misses)
system.cpu0.dcache.WriteReq_accesses::cpu0.data      4883058                       # number of WriteReq accesses(hits+misses)
system.cpu0.dcache.WriteReq_accesses::total      4883058                       # number of WriteReq accesses(hits+misses)
system.cpu0.dcache.LoadLockedReq_accesses::cpu0.data           31                       # number of LoadLockedReq accesses(hits+misses)
system.cpu0.dcache.LoadLockedReq_accesses::total           31                       # number of LoadLockedReq accesses(hits+misses)
system.cpu0.dcache.StoreCondReq_accesses::cpu0.data           27                       # number of StoreCondReq accesses(hits+misses)
system.cpu0.dcache.StoreCondReq_accesses::total           27                       # number of StoreCondReq accesses(hits+misses)
system.cpu0.dcache.demand_accesses::cpu0.data      9764889                       # number of demand (read+write) accesses
system.cpu0.dcache.demand_accesses::total      9764889                       # number of demand (read+write) accesses
system.cpu0.dcache.overall_accesses::cpu0.data      9764889                       # number of overall (read+write) accesses
system.cpu0.dcache.overall_accesses::total      9764889                       # number of overall (read+write) accesses
system.cpu0.dcache.ReadReq_miss_rate::cpu0.data     0.000043                       # miss rate for ReadReq accesses
system.cpu0.dcache.ReadReq_miss_rate::total     0.000043                       # miss rate for ReadReq accesses
system.cpu0.dcache.WriteReq_miss_rate::cpu0.data     0.000904                       # miss rate for WriteReq accesses
system.cpu0.dcache.WriteReq_miss_rate::total     0.000904                       # miss rate for WriteReq accesses
system.cpu0.dcache.LoadLockedReq_miss_rate::cpu0.data     0.161290                       # miss rate for LoadLockedReq accesses
system.cpu0.dcache.LoadLockedReq_miss_rate::total     0.161290                       # miss rate for LoadLockedReq accesses
system.cpu0.dcache.demand_miss_rate::cpu0.data     0.000474                       # miss rate for demand accesses
system.cpu0.dcache.demand_miss_rate::total     0.000474                       # miss rate for demand accesses
system.cpu0.dcache.overall_miss_rate::cpu0.data     0.000474                       # miss rate for overall accesses
system.cpu0.dcache.overall_miss_rate::total     0.000474                       # miss rate for overall accesses
system.cpu0.dcache.ReadReq_avg_miss_latency::cpu0.data 40735.652381                       # average ReadReq miss latency
system.cpu0.dcache.ReadReq_avg_miss_latency::total 40735.652381                       # average ReadReq miss latency
system.cpu0.dcache.WriteReq_avg_miss_latency::cpu0.data 49966.258832                       # average WriteReq miss latency
system.cpu0.dcache.WriteReq_avg_miss_latency::total 49966.258832                       # average WriteReq miss latency
system.cpu0.dcache.LoadLockedReq_avg_miss_latency::cpu0.data        34300                       # average LoadLockedReq miss latency
system.cpu0.dcache.LoadLockedReq_avg_miss_latency::total        34300                       # average LoadLockedReq miss latency
system.cpu0.dcache.demand_avg_miss_latency::cpu0.data 49547.230004                       # average overall miss latency
system.cpu0.dcache.demand_avg_miss_latency::total 49547.230004                       # average overall miss latency
system.cpu0.dcache.overall_avg_miss_latency::cpu0.data 49547.230004                       # average overall miss latency
system.cpu0.dcache.overall_avg_miss_latency::total 49547.230004                       # average overall miss latency
system.cpu0.dcache.blocked_cycles::no_mshrs           72                       # number of cycles access was blocked
system.cpu0.dcache.blocked_cycles::no_targets            0                       # number of cycles access was blocked
system.cpu0.dcache.blocked::no_mshrs                7                       # number of cycles access was blocked
system.cpu0.dcache.blocked::no_targets              0                       # number of cycles access was blocked
system.cpu0.dcache.avg_blocked_cycles::no_mshrs    10.285714                       # average number of cycles each access was blocked
system.cpu0.dcache.avg_blocked_cycles::no_targets          nan                       # average number of cycles each access was blocked
system.cpu0.dcache.fast_writes                      0                       # number of fast writes performed
system.cpu0.dcache.cache_copies                     0                       # number of cache copies performed
system.cpu0.dcache.writebacks::writebacks          517                       # number of writebacks
system.cpu0.dcache.writebacks::total              517                       # number of writebacks
system.cpu0.dcache.ReadReq_mshr_hits::cpu0.data           58                       # number of ReadReq MSHR hits
system.cpu0.dcache.ReadReq_mshr_hits::total           58                       # number of ReadReq MSHR hits
system.cpu0.dcache.WriteReq_mshr_hits::cpu0.data         3460                       # number of WriteReq MSHR hits
system.cpu0.dcache.WriteReq_mshr_hits::total         3460                       # number of WriteReq MSHR hits
system.cpu0.dcache.LoadLockedReq_mshr_hits::cpu0.data            5                       # number of LoadLockedReq MSHR hits
system.cpu0.dcache.LoadLockedReq_mshr_hits::total            5                       # number of LoadLockedReq MSHR hits
system.cpu0.dcache.demand_mshr_hits::cpu0.data         3518                       # number of demand (read+write) MSHR hits
system.cpu0.dcache.demand_mshr_hits::total         3518                       # number of demand (read+write) MSHR hits
system.cpu0.dcache.overall_mshr_hits::cpu0.data         3518                       # number of overall MSHR hits
system.cpu0.dcache.overall_mshr_hits::total         3518                       # number of overall MSHR hits
system.cpu0.dcache.ReadReq_mshr_misses::cpu0.data          152                       # number of ReadReq MSHR misses
system.cpu0.dcache.ReadReq_mshr_misses::total          152                       # number of ReadReq MSHR misses
system.cpu0.dcache.WriteReq_mshr_misses::cpu0.data          956                       # number of WriteReq MSHR misses
system.cpu0.dcache.WriteReq_mshr_misses::total          956                       # number of WriteReq MSHR misses
system.cpu0.dcache.demand_mshr_misses::cpu0.data         1108                       # number of demand (read+write) MSHR misses
system.cpu0.dcache.demand_mshr_misses::total         1108                       # number of demand (read+write) MSHR misses
system.cpu0.dcache.overall_mshr_misses::cpu0.data         1108                       # number of overall MSHR misses
system.cpu0.dcache.overall_mshr_misses::total         1108                       # number of overall MSHR misses
system.cpu0.dcache.ReadReq_mshr_miss_latency::cpu0.data      6053509                       # number of ReadReq MSHR miss cycles
system.cpu0.dcache.ReadReq_mshr_miss_latency::total      6053509                       # number of ReadReq MSHR miss cycles
system.cpu0.dcache.WriteReq_mshr_miss_latency::cpu0.data     52342500                       # number of WriteReq MSHR miss cycles
system.cpu0.dcache.WriteReq_mshr_miss_latency::total     52342500                       # number of WriteReq MSHR miss cycles
system.cpu0.dcache.demand_mshr_miss_latency::cpu0.data     58396009                       # number of demand (read+write) MSHR miss cycles
system.cpu0.dcache.demand_mshr_miss_latency::total     58396009                       # number of demand (read+write) MSHR miss cycles
system.cpu0.dcache.overall_mshr_miss_latency::cpu0.data     58396009                       # number of overall MSHR miss cycles
system.cpu0.dcache.overall_mshr_miss_latency::total     58396009                       # number of overall MSHR miss cycles
system.cpu0.dcache.ReadReq_mshr_miss_rate::cpu0.data     0.000031                       # mshr miss rate for ReadReq accesses
system.cpu0.dcache.ReadReq_mshr_miss_rate::total     0.000031                       # mshr miss rate for ReadReq accesses
system.cpu0.dcache.WriteReq_mshr_miss_rate::cpu0.data     0.000196                       # mshr miss rate for WriteReq accesses
system.cpu0.dcache.WriteReq_mshr_miss_rate::total     0.000196                       # mshr miss rate for WriteReq accesses
system.cpu0.dcache.demand_mshr_miss_rate::cpu0.data     0.000113                       # mshr miss rate for demand accesses
system.cpu0.dcache.demand_mshr_miss_rate::total     0.000113                       # mshr miss rate for demand accesses
system.cpu0.dcache.overall_mshr_miss_rate::cpu0.data     0.000113                       # mshr miss rate for overall accesses
system.cpu0.dcache.overall_mshr_miss_rate::total     0.000113                       # mshr miss rate for overall accesses
system.cpu0.dcache.ReadReq_avg_mshr_miss_latency::cpu0.data 39825.717105                       # average ReadReq mshr miss latency
system.cpu0.dcache.ReadReq_avg_mshr_miss_latency::total 39825.717105                       # average ReadReq mshr miss latency
system.cpu0.dcache.WriteReq_avg_mshr_miss_latency::cpu0.data 54751.569038                       # average WriteReq mshr miss latency
system.cpu0.dcache.WriteReq_avg_mshr_miss_latency::total 54751.569038                       # average WriteReq mshr miss latency
system.cpu0.dcache.demand_avg_mshr_miss_latency::cpu0.data 52703.979242                       # average overall mshr miss latency
system.cpu0.dcache.demand_avg_mshr_miss_latency::total 52703.979242                       # average overall mshr miss latency
system.cpu0.dcache.overall_avg_mshr_miss_latency::cpu0.data 52703.979242                       # average overall mshr miss latency
system.cpu0.dcache.overall_avg_mshr_miss_latency::total 52703.979242                       # average overall mshr miss latency
system.cpu0.dcache.no_allocate_misses               0                       # Number of misses that were no-allocate
system.cpu0.icache.tags.replacements               58                       # number of replacements
system.cpu0.icache.tags.tagsinuse          295.471061                       # Cycle average of tags in use
system.cpu0.icache.tags.total_refs               6507                       # Total number of references to valid blocks.
system.cpu0.icache.tags.sampled_refs              354                       # Sample count of references to valid blocks.
system.cpu0.icache.tags.avg_refs            18.381356                       # Average number of references to valid blocks.
system.cpu0.icache.tags.warmup_cycle                0                       # Cycle when the warmup percentage was hit.
system.cpu0.icache.tags.occ_blocks::cpu0.inst   295.471061                       # Average occupied blocks per requestor
system.cpu0.icache.tags.occ_percent::cpu0.inst     0.577092                       # Average percentage of cache occupancy
system.cpu0.icache.tags.occ_percent::total     0.577092                       # Average percentage of cache occupancy
system.cpu0.icache.tags.occ_task_id_blocks::1024          296                       # Occupied blocks per task id
system.cpu0.icache.tags.age_task_id_blocks_1024::3          296                       # Occupied blocks per task id
system.cpu0.icache.tags.occ_task_id_percent::1024     0.578125                       # Percentage of cache occupancy per task id
system.cpu0.icache.tags.tag_accesses            14216                       # Number of tag accesses
system.cpu0.icache.tags.data_accesses           14216                       # Number of data accesses
system.cpu0.icache.ReadReq_hits::cpu0.inst         6507                       # number of ReadReq hits
system.cpu0.icache.ReadReq_hits::total           6507                       # number of ReadReq hits
system.cpu0.icache.demand_hits::cpu0.inst         6507                       # number of demand (read+write) hits
system.cpu0.icache.demand_hits::total            6507                       # number of demand (read+write) hits
system.cpu0.icache.overall_hits::cpu0.inst         6507                       # number of overall hits
system.cpu0.icache.overall_hits::total           6507                       # number of overall hits
system.cpu0.icache.ReadReq_misses::cpu0.inst          424                       # number of ReadReq misses
system.cpu0.icache.ReadReq_misses::total          424                       # number of ReadReq misses
system.cpu0.icache.demand_misses::cpu0.inst          424                       # number of demand (read+write) misses
system.cpu0.icache.demand_misses::total           424                       # number of demand (read+write) misses
system.cpu0.icache.overall_misses::cpu0.inst          424                       # number of overall misses
system.cpu0.icache.overall_misses::total          424                       # number of overall misses
system.cpu0.icache.ReadReq_miss_latency::cpu0.inst     21851499                       # number of ReadReq miss cycles
system.cpu0.icache.ReadReq_miss_latency::total     21851499                       # number of ReadReq miss cycles
system.cpu0.icache.demand_miss_latency::cpu0.inst     21851499                       # number of demand (read+write) miss cycles
system.cpu0.icache.demand_miss_latency::total     21851499                       # number of demand (read+write) miss cycles
system.cpu0.icache.overall_miss_latency::cpu0.inst     21851499                       # number of overall miss cycles
system.cpu0.icache.overall_miss_latency::total     21851499                       # number of overall miss cycles
system.cpu0.icache.ReadReq_accesses::cpu0.inst         6931                       # number of ReadReq accesses(hits+misses)
system.cpu0.icache.ReadReq_accesses::total         6931                       # number of ReadReq accesses(hits+misses)
system.cpu0.icache.demand_accesses::cpu0.inst         6931                       # number of demand (read+write) accesses
system.cpu0.icache.demand_accesses::total         6931                       # number of demand (read+write) accesses
system.cpu0.icache.overall_accesses::cpu0.inst         6931                       # number of overall (read+write) accesses
system.cpu0.icache.overall_accesses::total         6931                       # number of overall (read+write) accesses
system.cpu0.icache.ReadReq_miss_rate::cpu0.inst     0.061174                       # miss rate for ReadReq accesses
system.cpu0.icache.ReadReq_miss_rate::total     0.061174                       # miss rate for ReadReq accesses
system.cpu0.icache.demand_miss_rate::cpu0.inst     0.061174                       # miss rate for demand accesses
system.cpu0.icache.demand_miss_rate::total     0.061174                       # miss rate for demand accesses
system.cpu0.icache.overall_miss_rate::cpu0.inst     0.061174                       # miss rate for overall accesses
system.cpu0.icache.overall_miss_rate::total     0.061174                       # miss rate for overall accesses
system.cpu0.icache.ReadReq_avg_miss_latency::cpu0.inst 51536.554245                       # average ReadReq miss latency
system.cpu0.icache.ReadReq_avg_miss_latency::total 51536.554245                       # average ReadReq miss latency
system.cpu0.icache.demand_avg_miss_latency::cpu0.inst 51536.554245                       # average overall miss latency
system.cpu0.icache.demand_avg_miss_latency::total 51536.554245                       # average overall miss latency
system.cpu0.icache.overall_avg_miss_latency::cpu0.inst 51536.554245                       # average overall miss latency
system.cpu0.icache.overall_avg_miss_latency::total 51536.554245                       # average overall miss latency
system.cpu0.icache.blocked_cycles::no_mshrs           18                       # number of cycles access was blocked
system.cpu0.icache.blocked_cycles::no_targets            0                       # number of cycles access was blocked
system.cpu0.icache.blocked::no_mshrs                2                       # number of cycles access was blocked
system.cpu0.icache.blocked::no_targets              0                       # number of cycles access was blocked
system.cpu0.icache.avg_blocked_cycles::no_mshrs            9                       # average number of cycles each access was blocked
system.cpu0.icache.avg_blocked_cycles::no_targets          nan                       # average number of cycles each access was blocked
system.cpu0.icache.fast_writes                      0                       # number of fast writes performed
system.cpu0.icache.cache_copies                     0                       # number of cache copies performed
system.cpu0.icache.ReadReq_mshr_hits::cpu0.inst           70                       # number of ReadReq MSHR hits
system.cpu0.icache.ReadReq_mshr_hits::total           70                       # number of ReadReq MSHR hits
system.cpu0.icache.demand_mshr_hits::cpu0.inst           70                       # number of demand (read+write) MSHR hits
system.cpu0.icache.demand_mshr_hits::total           70                       # number of demand (read+write) MSHR hits
system.cpu0.icache.overall_mshr_hits::cpu0.inst           70                       # number of overall MSHR hits
system.cpu0.icache.overall_mshr_hits::total           70                       # number of overall MSHR hits
system.cpu0.icache.ReadReq_mshr_misses::cpu0.inst          354                       # number of ReadReq MSHR misses
system.cpu0.icache.ReadReq_mshr_misses::total          354                       # number of ReadReq MSHR misses
system.cpu0.icache.demand_mshr_misses::cpu0.inst          354                       # number of demand (read+write) MSHR misses
system.cpu0.icache.demand_mshr_misses::total          354                       # number of demand (read+write) MSHR misses
system.cpu0.icache.overall_mshr_misses::cpu0.inst          354                       # number of overall MSHR misses
system.cpu0.icache.overall_mshr_misses::total          354                       # number of overall MSHR misses
system.cpu0.icache.ReadReq_mshr_miss_latency::cpu0.inst     18615501                       # number of ReadReq MSHR miss cycles
system.cpu0.icache.ReadReq_mshr_miss_latency::total     18615501                       # number of ReadReq MSHR miss cycles
system.cpu0.icache.demand_mshr_miss_latency::cpu0.inst     18615501                       # number of demand (read+write) MSHR miss cycles
system.cpu0.icache.demand_mshr_miss_latency::total     18615501                       # number of demand (read+write) MSHR miss cycles
system.cpu0.icache.overall_mshr_miss_latency::cpu0.inst     18615501                       # number of overall MSHR miss cycles
system.cpu0.icache.overall_mshr_miss_latency::total     18615501                       # number of overall MSHR miss cycles
system.cpu0.icache.ReadReq_mshr_miss_rate::cpu0.inst     0.051075                       # mshr miss rate for ReadReq accesses
system.cpu0.icache.ReadReq_mshr_miss_rate::total     0.051075                       # mshr miss rate for ReadReq accesses
system.cpu0.icache.demand_mshr_miss_rate::cpu0.inst     0.051075                       # mshr miss rate for demand accesses
system.cpu0.icache.demand_mshr_miss_rate::total     0.051075                       # mshr miss rate for demand accesses
system.cpu0.icache.overall_mshr_miss_rate::cpu0.inst     0.051075                       # mshr miss rate for overall accesses
system.cpu0.icache.overall_mshr_miss_rate::total     0.051075                       # mshr miss rate for overall accesses
system.cpu0.icache.ReadReq_avg_mshr_miss_latency::cpu0.inst 52586.161017                       # average ReadReq mshr miss latency
system.cpu0.icache.ReadReq_avg_mshr_miss_latency::total 52586.161017                       # average ReadReq mshr miss latency
system.cpu0.icache.demand_avg_mshr_miss_latency::cpu0.inst 52586.161017                       # average overall mshr miss latency
system.cpu0.icache.demand_avg_mshr_miss_latency::total 52586.161017                       # average overall mshr miss latency
system.cpu0.icache.overall_avg_mshr_miss_latency::cpu0.inst 52586.161017                       # average overall mshr miss latency
system.cpu0.icache.overall_avg_mshr_miss_latency::total 52586.161017                       # average overall mshr miss latency
system.cpu0.icache.no_allocate_misses               0                       # Number of misses that were no-allocate
system.cpu1.branchPred.lookups                3289744                       # Number of BP lookups
system.cpu1.branchPred.condPredicted          2484483                       # Number of conditional branches predicted
system.cpu1.branchPred.condIncorrect           140989                       # Number of conditional branches incorrect
system.cpu1.branchPred.BTBLookups             2402561                       # Number of BTB lookups
system.cpu1.branchPred.BTBHits                2250187                       # Number of BTB hits
[...]
system.l2.ReadReq_mshr_miss_latency::total     36614500                       # number of ReadReq MSHR miss cycles
system.l2.UpgradeReq_mshr_miss_latency::cpu1.data    243020984                       # number of UpgradeReq MSHR miss cycles
system.l2.UpgradeReq_mshr_miss_latency::cpu2.data    272956320                       # number of UpgradeReq MSHR miss cycles
system.l2.UpgradeReq_mshr_miss_latency::total    515977304                       # number of UpgradeReq MSHR miss cycles
system.l2.SCUpgradeReq_mshr_miss_latency::cpu1.data    175539812                       # number of SCUpgradeReq MSHR miss cycles
system.l2.SCUpgradeReq_mshr_miss_latency::cpu2.data    196336272                       # number of SCUpgradeReq MSHR miss cycles
system.l2.SCUpgradeReq_mshr_miss_latency::total    371876084                       # number of SCUpgradeReq MSHR miss cycles
system.l2.ReadExReq_mshr_miss_latency::cpu0.data     38499000                       # number of ReadExReq MSHR miss cycles
system.l2.ReadExReq_mshr_miss_latency::cpu1.data     12383000                       # number of ReadExReq MSHR miss cycles
system.l2.ReadExReq_mshr_miss_latency::cpu2.data     18319000                       # number of ReadExReq MSHR miss cycles
system.l2.ReadExReq_mshr_miss_latency::total     69201000                       # number of ReadExReq MSHR miss cycles
system.l2.demand_mshr_miss_latency::cpu0.inst     13517000                       # number of demand (read+write) MSHR miss cycles
system.l2.demand_mshr_miss_latency::cpu0.data     42142000                       # number of demand (read+write) MSHR miss cycles
system.l2.demand_mshr_miss_latency::cpu1.inst      6502000                       # number of demand (read+write) MSHR miss cycles
system.l2.demand_mshr_miss_latency::cpu1.data     15393500                       # number of demand (read+write) MSHR miss cycles
system.l2.demand_mshr_miss_latency::cpu2.inst      6646000                       # number of demand (read+write) MSHR miss cycles
system.l2.demand_mshr_miss_latency::cpu2.data     21615000                       # number of demand (read+write) MSHR miss cycles
system.l2.demand_mshr_miss_latency::total    105815500                       # number of demand (read+write) MSHR miss cycles
system.l2.overall_mshr_miss_latency::cpu0.inst     13517000                       # number of overall MSHR miss cycles
system.l2.overall_mshr_miss_latency::cpu0.data     42142000                       # number of overall MSHR miss cycles
system.l2.overall_mshr_miss_latency::cpu1.inst      6502000                       # number of overall MSHR miss cycles
system.l2.overall_mshr_miss_latency::cpu1.data     15393500                       # number of overall MSHR miss cycles
system.l2.overall_mshr_miss_latency::cpu2.inst      6646000                       # number of overall MSHR miss cycles
system.l2.overall_mshr_miss_latency::cpu2.data     21615000                       # number of overall MSHR miss cycles
system.l2.overall_mshr_miss_latency::total    105815500                       # number of overall MSHR miss cycles
system.l2.ReadReq_mshr_miss_rate::cpu0.inst     0.929379                       # mshr miss rate for ReadReq accesses
system.l2.ReadReq_mshr_miss_rate::cpu0.data     0.565789                       # mshr miss rate for ReadReq accesses
system.l2.ReadReq_mshr_miss_rate::cpu1.inst     0.143113                       # mshr miss rate for ReadReq accesses
system.l2.ReadReq_mshr_miss_rate::cpu1.data     0.004427                       # mshr miss rate for ReadReq accesses
system.l2.ReadReq_mshr_miss_rate::cpu2.inst     0.159647                       # mshr miss rate for ReadReq accesses
system.l2.ReadReq_mshr_miss_rate::cpu2.data     0.003348                       # mshr miss rate for ReadReq accesses
system.l2.ReadReq_mshr_miss_rate::total      0.020502                       # mshr miss rate for ReadReq accesses
system.l2.UpgradeReq_mshr_miss_rate::cpu1.data     0.997667                       # mshr miss rate for UpgradeReq accesses
system.l2.UpgradeReq_mshr_miss_rate::cpu2.data     0.997774                       # mshr miss rate for UpgradeReq accesses
system.l2.UpgradeReq_mshr_miss_rate::total     0.997724                       # mshr miss rate for UpgradeReq accesses
system.l2.SCUpgradeReq_mshr_miss_rate::cpu1.data            1                       # mshr miss rate for SCUpgradeReq accesses
system.l2.SCUpgradeReq_mshr_miss_rate::cpu2.data     0.999587                       # mshr miss rate for SCUpgradeReq accesses
system.l2.SCUpgradeReq_mshr_miss_rate::total     0.999782                       # mshr miss rate for SCUpgradeReq accesses
system.l2.ReadExReq_mshr_miss_rate::cpu0.data     0.992678                       # mshr miss rate for ReadExReq accesses
system.l2.ReadExReq_mshr_miss_rate::cpu1.data     0.888563                       # mshr miss rate for ReadExReq accesses
system.l2.ReadExReq_mshr_miss_rate::cpu2.data     0.951477                       # mshr miss rate for ReadExReq accesses
system.l2.ReadExReq_mshr_miss_rate::total     0.961604                       # mshr miss rate for ReadExReq accesses
system.l2.demand_mshr_miss_rate::cpu0.inst     0.929379                       # mshr miss rate for demand accesses
system.l2.demand_mshr_miss_rate::cpu0.data     0.934116                       # mshr miss rate for demand accesses
system.l2.demand_mshr_miss_rate::cpu1.inst     0.143113                       # mshr miss rate for demand accesses
system.l2.demand_mshr_miss_rate::cpu1.data     0.022104                       # mshr miss rate for demand accesses
system.l2.demand_mshr_miss_rate::cpu2.inst     0.159647                       # mshr miss rate for demand accesses
system.l2.demand_mshr_miss_rate::cpu2.data     0.021565                       # mshr miss rate for demand accesses
system.l2.demand_mshr_miss_rate::total       0.057273                       # mshr miss rate for demand accesses
system.l2.overall_mshr_miss_rate::cpu0.inst     0.929379                       # mshr miss rate for overall accesses
system.l2.overall_mshr_miss_rate::cpu0.data     0.934116                       # mshr miss rate for overall accesses
system.l2.overall_mshr_miss_rate::cpu1.inst     0.143113                       # mshr miss rate for overall accesses
system.l2.overall_mshr_miss_rate::cpu1.data     0.022104                       # mshr miss rate for overall accesses
system.l2.overall_mshr_miss_rate::cpu2.inst     0.159647                       # mshr miss rate for overall accesses
system.l2.overall_mshr_miss_rate::cpu2.data     0.021565                       # mshr miss rate for overall accesses
system.l2.overall_mshr_miss_rate::total      0.057273                       # mshr miss rate for overall accesses
system.l2.ReadReq_avg_mshr_miss_latency::cpu0.inst 41085.106383                       # average ReadReq mshr miss latency
system.l2.ReadReq_avg_mshr_miss_latency::cpu0.data 42360.465116                       # average ReadReq mshr miss latency
system.l2.ReadReq_avg_mshr_miss_latency::cpu1.inst 40637.500000                       # average ReadReq mshr miss latency
system.l2.ReadReq_avg_mshr_miss_latency::cpu1.data 40682.432432                       # average ReadReq mshr miss latency
system.l2.ReadReq_avg_mshr_miss_latency::cpu2.inst 40773.006135                       # average ReadReq mshr miss latency
system.l2.ReadReq_avg_mshr_miss_latency::cpu2.data 40691.358025                       # average ReadReq mshr miss latency
system.l2.ReadReq_avg_mshr_miss_latency::total 41001.679731                       # average ReadReq mshr miss latency
system.l2.UpgradeReq_avg_mshr_miss_latency::cpu1.data 40584.666667                       # average UpgradeReq mshr miss latency
system.l2.UpgradeReq_avg_mshr_miss_latency::cpu2.data 40588.300372                       # average UpgradeReq mshr miss latency
system.l2.UpgradeReq_avg_mshr_miss_latency::total 40586.588846                       # average UpgradeReq mshr miss latency
system.l2.SCUpgradeReq_avg_mshr_miss_latency::cpu1.data 40521.655586                       # average SCUpgradeReq mshr miss latency
system.l2.SCUpgradeReq_avg_mshr_miss_latency::cpu2.data 40523.482353                       # average SCUpgradeReq mshr miss latency
system.l2.SCUpgradeReq_avg_mshr_miss_latency::total 40522.620028                       # average SCUpgradeReq mshr miss latency
system.l2.ReadExReq_avg_mshr_miss_latency::cpu0.data 40567.966280                       # average ReadExReq mshr miss latency
system.l2.ReadExReq_avg_mshr_miss_latency::cpu1.data 40867.986799                       # average ReadExReq mshr miss latency
system.l2.ReadExReq_avg_mshr_miss_latency::cpu2.data 40618.625277                       # average ReadExReq mshr miss latency
system.l2.ReadExReq_avg_mshr_miss_latency::total 40634.762184                       # average ReadExReq mshr miss latency
system.l2.demand_avg_mshr_miss_latency::cpu0.inst 41085.106383                       # average overall mshr miss latency
system.l2.demand_avg_mshr_miss_latency::cpu0.data 40716.908213                       # average overall mshr miss latency
system.l2.demand_avg_mshr_miss_latency::cpu1.inst 40637.500000                       # average overall mshr miss latency
system.l2.demand_avg_mshr_miss_latency::cpu1.data 40831.564987                       # average overall mshr miss latency
system.l2.demand_avg_mshr_miss_latency::cpu2.inst 40773.006135                       # average overall mshr miss latency
system.l2.demand_avg_mshr_miss_latency::cpu2.data 40629.699248                       # average overall mshr miss latency
system.l2.demand_avg_mshr_miss_latency::total 40760.978428                       # average overall mshr miss latency
system.l2.overall_avg_mshr_miss_latency::cpu0.inst 41085.106383                       # average overall mshr miss latency
system.l2.overall_avg_mshr_miss_latency::cpu0.data 40716.908213                       # average overall mshr miss latency
system.l2.overall_avg_mshr_miss_latency::cpu1.inst 40637.500000                       # average overall mshr miss latency
system.l2.overall_avg_mshr_miss_latency::cpu1.data 40831.564987                       # average overall mshr miss latency
system.l2.overall_avg_mshr_miss_latency::cpu2.inst 40773.006135                       # average overall mshr miss latency
system.l2.overall_avg_mshr_miss_latency::cpu2.data 40629.699248                       # average overall mshr miss latency
system.l2.overall_avg_mshr_miss_latency::total 40760.978428                       # average overall mshr miss latency
system.l2.no_allocate_misses                        0                       # Number of misses that were no-allocate
system.membus.trans_dist::ReadReq                 893                       # Transaction distribution
system.membus.trans_dist::ReadResp                893                       # Transaction distribution
system.membus.trans_dist::UpgradeReq            14107                       # Transaction distribution
system.membus.trans_dist::SCUpgradeReq          48231                       # Transaction distribution
system.membus.trans_dist::UpgradeResp           21890                       # Transaction distribution
system.membus.trans_dist::ReadExReq              1703                       # Transaction distribution
system.membus.trans_dist::ReadExResp             1703                       # Transaction distribution
system.membus.pkt_count_system.l2.mem_side::system.physmem.port        89420                       # Packet count per connected master and slave (bytes)
system.membus.pkt_count::total                  89420                       # Packet count per connected master and slave (bytes)
system.membus.pkt_size_system.l2.mem_side::system.physmem.port       166144                       # Cumulative packet size per connected master and slave (bytes)
system.membus.pkt_size::total                  166144                       # Cumulative packet size per connected master and slave (bytes)
system.membus.snoops                            40448                       # Total snoops (count)
system.membus.snoop_fanout::samples             65099                       # Request fanout histogram
system.membus.snoop_fanout::mean                    0                       # Request fanout histogram
system.membus.snoop_fanout::stdev                   0                       # Request fanout histogram
system.membus.snoop_fanout::underflows              0      0.00%      0.00% # Request fanout histogram
system.membus.snoop_fanout::0                   65099    100.00%    100.00% # Request fanout histogram
system.membus.snoop_fanout::1                       0      0.00%    100.00% # Request fanout histogram
system.membus.snoop_fanout::overflows               0      0.00%    100.00% # Request fanout histogram
system.membus.snoop_fanout::min_value               0                       # Request fanout histogram
system.membus.snoop_fanout::max_value               0                       # Request fanout histogram
system.membus.snoop_fanout::total               65099                       # Request fanout histogram
system.membus.reqLayer0.occupancy            36286158                       # Layer occupancy (ticks)
system.membus.reqLayer0.utilization               0.4                       # Layer utilization (%)
system.membus.respLayer1.occupancy           46356806                       # Layer occupancy (ticks)
system.membus.respLayer1.utilization              0.5                       # Layer utilization (%)
system.tol2bus.trans_dist::ReadReq             114625                       # Transaction distribution
system.tol2bus.trans_dist::ReadResp            114625                       # Transaction distribution
system.tol2bus.trans_dist::Writeback            29156                       # Transaction distribution
system.tol2bus.trans_dist::UpgradeReq           14136                       # Transaction distribution
system.tol2bus.trans_dist::SCUpgradeReq         48233                       # Transaction distribution
system.tol2bus.trans_dist::UpgradeResp          62369                       # Transaction distribution
system.tol2bus.trans_dist::SCUpgradeFailReq          127                       # Transaction distribution
system.tol2bus.trans_dist::UpgradeFailResp          127                       # Transaction distribution
system.tol2bus.trans_dist::ReadExReq            33652                       # Transaction distribution
system.tol2bus.trans_dist::ReadExResp           33652                       # Transaction distribution
system.tol2bus.pkt_count_system.cpu0.icache.mem_side::system.l2.cpu_side          708                       # Packet count per connected master and slave (bytes)
system.tol2bus.pkt_count_system.cpu0.dcache.mem_side::system.l2.cpu_side         2733                       # Packet count per connected master and slave (bytes)
system.tol2bus.pkt_count_system.cpu1.icache.mem_side::system.l2.cpu_side         2236                       # Packet count per connected master and slave (bytes)
system.tol2bus.pkt_count_system.cpu1.dcache.mem_side::system.l2.cpu_side       136503                       # Packet count per connected master and slave (bytes)
system.tol2bus.pkt_count_system.cpu2.icache.mem_side::system.l2.cpu_side         2042                       # Packet count per connected master and slave (bytes)
system.tol2bus.pkt_count_system.cpu2.dcache.mem_side::system.l2.cpu_side       162955                       # Packet count per connected master and slave (bytes)
system.tol2bus.pkt_count::total                307177                       # Packet count per connected master and slave (bytes)
system.tol2bus.pkt_size_system.cpu0.icache.mem_side::system.l2.cpu_side        22656                       # Cumulative packet size per connected master and slave (bytes)
system.tol2bus.pkt_size_system.cpu0.dcache.mem_side::system.l2.cpu_side       104000                       # Cumulative packet size per connected master and slave (bytes)
system.tol2bus.pkt_size_system.cpu1.icache.mem_side::system.l2.cpu_side        71552                       # Cumulative packet size per connected master and slave (bytes)
system.tol2bus.pkt_size_system.cpu1.dcache.mem_side::system.l2.cpu_side      1778176                       # Cumulative packet size per connected master and slave (bytes)
system.tol2bus.pkt_size_system.cpu2.icache.mem_side::system.l2.cpu_side        65344                       # Cumulative packet size per connected master and slave (bytes)
system.tol2bus.pkt_size_system.cpu2.dcache.mem_side::system.l2.cpu_side      2725184                       # Cumulative packet size per connected master and slave (bytes)
system.tol2bus.pkt_size::total                4766912                       # Cumulative packet size per connected master and slave (bytes)
system.tol2bus.snoops                          143525                       # Total snoops (count)
system.tol2bus.snoop_fanout::samples           239929                       # Request fanout histogram
system.tol2bus.snoop_fanout::mean                   5                       # Request fanout histogram
system.tol2bus.snoop_fanout::stdev                  0                       # Request fanout histogram
system.tol2bus.snoop_fanout::underflows             0      0.00%      0.00% # Request fanout histogram
system.tol2bus.snoop_fanout::0                      0      0.00%      0.00% # Request fanout histogram
system.tol2bus.snoop_fanout::1                      0      0.00%      0.00% # Request fanout histogram
system.tol2bus.snoop_fanout::2                      0      0.00%      0.00% # Request fanout histogram
system.tol2bus.snoop_fanout::3                      0      0.00%      0.00% # Request fanout histogram
system.tol2bus.snoop_fanout::4                      0      0.00%      0.00% # Request fanout histogram
system.tol2bus.snoop_fanout::5                 239929    100.00%    100.00% # Request fanout histogram
system.tol2bus.snoop_fanout::6                      0      0.00%    100.00% # Request fanout histogram
system.tol2bus.snoop_fanout::overflows              0      0.00%    100.00% # Request fanout histogram
system.tol2bus.snoop_fanout::min_value              5                       # Request fanout histogram
system.tol2bus.snoop_fanout::max_value              5                       # Request fanout histogram
system.tol2bus.snoop_fanout::total             239929                       # Request fanout histogram
system.tol2bus.reqLayer0.occupancy          149882972                       # Layer occupancy (ticks)
system.tol2bus.reqLayer0.utilization              1.5                       # Layer utilization (%)
system.tol2bus.respLayer0.occupancy            531499                       # Layer occupancy (ticks)
system.tol2bus.respLayer0.utilization             0.0                       # Layer utilization (%)
system.tol2bus.respLayer1.occupancy           1666491                       # Layer occupancy (ticks)
system.tol2bus.respLayer1.utilization             0.0                       # Layer utilization (%)
system.tol2bus.respLayer4.occupancy           1698956                       # Layer occupancy (ticks)
system.tol2bus.respLayer4.utilization             0.0                       # Layer utilization (%)
system.tol2bus.respLayer5.occupancy         117654518                       # Layer occupancy (ticks)
system.tol2bus.respLayer5.utilization             1.2                       # Layer utilization (%)
system.tol2bus.respLayer8.occupancy           1550462                       # Layer occupancy (ticks)
system.tol2bus.respLayer8.utilization             0.0                       # Layer utilization (%)
system.tol2bus.respLayer9.occupancy         131390389                       # Layer occupancy (ticks)
system.tol2bus.respLayer9.utilization             1.3                       # Layer utilization (%)

---------- End Simulation Statistics   ----------
