
---------- Begin Simulation Statistics ----------
sim_seconds                                  0.020171                       # Number of seconds simulated
sim_ticks                                 20171244000                       # Number of ticks simulated
final_tick                                20171244000                       # Number of ticks from beginning of simulation (restored from checkpoints and never reset)
sim_freq                                 1000000000000                       # Frequency of simulated ticks
host_inst_rate                                 139108                       # Simulator instruction rate (inst/s)
host_op_rate                                   140678                       # Simulator op (including micro ops) rate (op/s)
host_tick_rate                               13008990                       # Simulator tick rate (ticks/s)
host_mem_usage                                 886120                       # Number of bytes of host memory used
host_seconds                                  1550.56                       # Real time elapsed on the host
sim_insts                                   215695632                       # Number of instructions simulated
sim_ops                                     218130520                       # Number of ops (including micro ops) simulated
system.voltage_domain.voltage                       1                       # Voltage in Volts
system.clk_domain.clock                          1000                       # Clock period in ticks
system.physmem.bytes_read::cpu00.inst           22592                       # Number of bytes read from this memory
system.physmem.bytes_read::cpu00.data           19648                       # Number of bytes read from this memory
system.physmem.bytes_read::cpu01.inst            4480                       # Number of bytes read from this memory
system.physmem.bytes_read::cpu01.data            5696                       # Number of bytes read from this memory
system.physmem.bytes_read::cpu02.inst            1792                       # Number of bytes read from this memory
system.physmem.bytes_read::cpu02.data            6656                       # Number of bytes read from this memory
system.physmem.bytes_read::cpu03.inst            4352                       # Number of bytes read from this memory
system.physmem.bytes_read::cpu03.data            6720                       # Number of bytes read from this memory
system.physmem.bytes_read::cpu04.inst            3392                       # Number of bytes read from this memory
system.physmem.bytes_read::cpu04.data           21568                       # Number of bytes read from this memory
system.physmem.bytes_read::cpu05.inst            1408                       # Number of bytes read from this memory
system.physmem.bytes_read::cpu05.data           11264                       # Number of bytes read from this memory
system.physmem.bytes_read::cpu06.inst             768                       # Number of bytes read from this memory
system.physmem.bytes_read::cpu06.data           18176                       # Number of bytes read from this memory
system.physmem.bytes_read::cpu07.inst            1216                       # Number of bytes read from this memory
system.physmem.bytes_read::cpu07.data           23936                       # Number of bytes read from this memory
system.physmem.bytes_read::cpu08.inst            1152                       # Number of bytes read from this memory
system.physmem.bytes_read::cpu08.data           26944                       # Number of bytes read from this memory
system.physmem.bytes_read::cpu09.inst            1024                       # Number of bytes read from this memory
system.physmem.bytes_read::cpu09.data           33536                       # Number of bytes read from this memory
system.physmem.bytes_read::cpu10.inst             768                       # Number of bytes read from this memory
system.physmem.bytes_read::cpu10.data           23744                       # Number of bytes read from this memory
system.physmem.bytes_read::cpu11.inst             960                       # Number of bytes read from this memory
system.physmem.bytes_read::cpu11.data           12672                       # Number of bytes read from this memory
system.physmem.bytes_read::cpu12.inst            1024                       # Number of bytes read from this memory
system.physmem.bytes_read::cpu12.data           21184                       # Number of bytes read from this memory
system.physmem.bytes_read::cpu13.inst             640                       # Number of bytes read from this memory
system.physmem.bytes_read::cpu13.data            9984                       # Number of bytes read from this memory
system.physmem.bytes_read::cpu14.inst             576                       # Number of bytes read from this memory
system.physmem.bytes_read::cpu14.data           13440                       # Number of bytes read from this memory
system.physmem.bytes_read::cpu15.inst             768                       # Number of bytes read from this memory
system.physmem.bytes_read::cpu15.data            8192                       # Number of bytes read from this memory
system.physmem.bytes_read::cpu16.inst            1280                       # Number of bytes read from this memory
system.physmem.bytes_read::cpu16.data            3328                       # Number of bytes read from this memory
system.physmem.bytes_read::total               314880                       # Number of bytes read from this memory
system.physmem.bytes_inst_read::cpu00.inst        22592                       # Number of instructions bytes read from this memory
system.physmem.bytes_inst_read::cpu01.inst         4480                       # Number of instructions bytes read from this memory
system.physmem.bytes_inst_read::cpu02.inst         1792                       # Number of instructions bytes read from this memory
system.physmem.bytes_inst_read::cpu03.inst         4352                       # Number of instructions bytes read from this memory
system.physmem.bytes_inst_read::cpu04.inst         3392                       # Number of instructions bytes read from this memory
system.physmem.bytes_inst_read::cpu05.inst         1408                       # Number of instructions bytes read from this memory
system.physmem.bytes_inst_read::cpu06.inst          768                       # Number of instructions bytes read from this memory
system.physmem.bytes_inst_read::cpu07.inst         1216                       # Number of instructions bytes read from this memory
system.physmem.bytes_inst_read::cpu08.inst         1152                       # Number of instructions bytes read from this memory
system.physmem.bytes_inst_read::cpu09.inst         1024                       # Number of instructions bytes read from this memory
system.physmem.bytes_inst_read::cpu10.inst          768                       # Number of instructions bytes read from this memory
system.physmem.bytes_inst_read::cpu11.inst          960                       # Number of instructions bytes read from this memory
system.physmem.bytes_inst_read::cpu12.inst         1024                       # Number of instructions bytes read from this memory
system.physmem.bytes_inst_read::cpu13.inst          640                       # Number of instructions bytes read from this memory
system.physmem.bytes_inst_read::cpu14.inst          576                       # Number of instructions bytes read from this memory
system.physmem.bytes_inst_read::cpu15.inst          768                       # Number of instructions bytes read from this memory
system.physmem.bytes_inst_read::cpu16.inst         1280                       # Number of instructions bytes read from this memory
system.physmem.bytes_inst_read::total           48192                       # Number of instructions bytes read from this memory
system.physmem.bytes_written::writebacks         4416                       # Number of bytes written to this memory
system.physmem.bytes_written::total              4416                       # Number of bytes written to this memory
system.physmem.num_reads::cpu00.inst              353                       # Number of read requests responded to by this memory
system.physmem.num_reads::cpu00.data              307                       # Number of read requests responded to by this memory
system.physmem.num_reads::cpu01.inst               70                       # Number of read requests responded to by this memory
system.physmem.num_reads::cpu01.data               89                       # Number of read requests responded to by this memory
system.physmem.num_reads::cpu02.inst               28                       # Number of read requests responded to by this memory
system.physmem.num_reads::cpu02.data              104                       # Number of read requests responded to by this memory
system.physmem.num_reads::cpu03.inst               68                       # Number of read requests responded to by this memory
system.physmem.num_reads::cpu03.data              105                       # Number of read requests responded to by this memory
system.physmem.num_reads::cpu04.inst               53                       # Number of read requests responded to by this memory
system.physmem.num_reads::cpu04.data              337                       # Number of read requests responded to by this memory
system.physmem.num_reads::cpu05.inst               22                       # Number of read requests responded to by this memory
system.physmem.num_reads::cpu05.data              176                       # Number of read requests responded to by this memory
system.physmem.num_reads::cpu06.inst               12                       # Number of read requests responded to by this memory
system.physmem.num_reads::cpu06.data              284                       # Number of read requests responded to by this memory
system.physmem.num_reads::cpu07.inst               19                       # Number of read requests responded to by this memory
system.physmem.num_reads::cpu07.data              374                       # Number of read requests responded to by this memory
system.physmem.num_reads::cpu08.inst               18                       # Number of read requests responded to by this memory
system.physmem.num_reads::cpu08.data              421                       # Number of read requests responded to by this memory
system.physmem.num_reads::cpu09.inst               16                       # Number of read requests responded to by this memory
system.physmem.num_reads::cpu09.data              524                       # Number of read requests responded to by this memory
system.physmem.num_reads::cpu10.inst               12                       # Number of read requests responded to by this memory
system.physmem.num_reads::cpu10.data              371                       # Number of read requests responded to by this memory
system.physmem.num_reads::cpu11.inst               15                       # Number of read requests responded to by this memory
system.physmem.num_reads::cpu11.data              198                       # Number of read requests responded to by this memory
system.physmem.num_reads::cpu12.inst               16                       # Number of read requests responded to by this memory
system.physmem.num_reads::cpu12.data              331                       # Number of read requests responded to by this memory
system.physmem.num_reads::cpu13.inst               10                       # Number of read requests responded to by this memory
system.physmem.num_reads::cpu13.data              156                       # Number of read requests responded to by this memory
system.physmem.num_reads::cpu14.inst                9                       # Number of read requests responded to by this memory
system.physmem.num_reads::cpu14.data              210                       # Number of read requests responded to by this memory
system.physmem.num_reads::cpu15.inst               12                       # Number of read requests responded to by this memory
system.physmem.num_reads::cpu15.data              128                       # Number of read requests responded to by this memory
system.physmem.num_reads::cpu16.inst               20                       # Number of read requests responded to by this memory
system.physmem.num_reads::cpu16.data               52                       # Number of read requests responded to by this memory
system.physmem.num_reads::total                  4920                       # Number of read requests responded to by this memory
system.physmem.num_writes::writebacks              69                       # Number of write requests responded to by this memory
system.physmem.num_writes::total                   69                       # Number of write requests responded to by this memory
system.physmem.bw_read::cpu00.inst            1120010                       # Total read bandwidth from this memory (bytes/s)
system.physmem.bw_read::cpu00.data             974060                       # Total read bandwidth from this memory (bytes/s)
system.physmem.bw_read::cpu01.inst             222098                       # Total read bandwidth from this memory (bytes/s)
system.physmem.bw_read::cpu01.data             282382                       # Total read bandwidth from this memory (bytes/s)
system.physmem.bw_read::cpu02.inst              88839                       # Total read bandwidth from this memory (bytes/s)
system.physmem.bw_read::cpu02.data             329975                       # Total read bandwidth from this memory (bytes/s)
system.physmem.bw_read::cpu03.inst             215753                       # Total read bandwidth from this memory (bytes/s)
system.physmem.bw_read::cpu03.data             333148                       # Total read bandwidth from this memory (bytes/s)
system.physmem.bw_read::cpu04.inst             168160                       # Total read bandwidth from this memory (bytes/s)
system.physmem.bw_read::cpu04.data            1069245                       # Total read bandwidth from this memory (bytes/s)
system.physmem.bw_read::cpu05.inst              69802                       # Total read bandwidth from this memory (bytes/s)
system.physmem.bw_read::cpu05.data             558419                       # Total read bandwidth from this memory (bytes/s)
system.physmem.bw_read::cpu06.inst              38074                       # Total read bandwidth from this memory (bytes/s)
system.physmem.bw_read::cpu06.data             901085                       # Total read bandwidth from this memory (bytes/s)
system.physmem.bw_read::cpu07.inst              60284                       # Total read bandwidth from this memory (bytes/s)
system.physmem.bw_read::cpu07.data            1186640                       # Total read bandwidth from this memory (bytes/s)
system.physmem.bw_read::cpu08.inst              57111                       # Total read bandwidth from this memory (bytes/s)
system.physmem.bw_read::cpu08.data            1335763                       # Total read bandwidth from this memory (bytes/s)
system.physmem.bw_read::cpu09.inst              50765                       # Total read bandwidth from this memory (bytes/s)
system.physmem.bw_read::cpu09.data            1662565                       # Total read bandwidth from this memory (bytes/s)
system.physmem.bw_read::cpu10.inst              38074                       # Total read bandwidth from this memory (bytes/s)
system.physmem.bw_read::cpu10.data            1177121                       # Total read bandwidth from this memory (bytes/s)
system.physmem.bw_read::cpu11.inst              47593                       # Total read bandwidth from this memory (bytes/s)
system.physmem.bw_read::cpu11.data             628221                       # Total read bandwidth from this memory (bytes/s)
system.physmem.bw_read::cpu12.inst              50765                       # Total read bandwidth from this memory (bytes/s)
system.physmem.bw_read::cpu12.data            1050208                       # Total read bandwidth from this memory (bytes/s)
system.physmem.bw_read::cpu13.inst              31728                       # Total read bandwidth from this memory (bytes/s)
system.physmem.bw_read::cpu13.data             494962                       # Total read bandwidth from this memory (bytes/s)
system.physmem.bw_read::cpu14.inst              28556                       # Total read bandwidth from this memory (bytes/s)
system.physmem.bw_read::cpu14.data             666295                       # Total read bandwidth from this memory (bytes/s)
system.physmem.bw_read::cpu15.inst              38074                       # Total read bandwidth from this memory (bytes/s)
system.physmem.bw_read::cpu15.data             406123                       # Total read bandwidth from this memory (bytes/s)
system.physmem.bw_read::cpu16.inst              63457                       # Total read bandwidth from this memory (bytes/s)
system.physmem.bw_read::cpu16.data             164987                       # Total read bandwidth from this memory (bytes/s)
system.physmem.bw_read::total                15610341                       # Total read bandwidth from this memory (bytes/s)
system.physmem.bw_inst_read::cpu00.inst       1120010                       # Instruction read bandwidth from this memory (bytes/s)
system.physmem.bw_inst_read::cpu01.inst        222098                       # Instruction read bandwidth from this memory (bytes/s)
system.physmem.bw_inst_read::cpu02.inst         88839                       # Instruction read bandwidth from this memory (bytes/s)
system.physmem.bw_inst_read::cpu03.inst        215753                       # Instruction read bandwidth from this memory (bytes/s)
system.physmem.bw_inst_read::cpu04.inst        168160                       # Instruction read bandwidth from this memory (bytes/s)
system.physmem.bw_inst_read::cpu05.inst         69802                       # Instruction read bandwidth from this memory (bytes/s)
system.physmem.bw_inst_read::cpu06.inst         38074                       # Instruction read bandwidth from this memory (bytes/s)
system.physmem.bw_inst_read::cpu07.inst         60284                       # Instruction read bandwidth from this memory (bytes/s)
system.physmem.bw_inst_read::cpu08.inst         57111                       # Instruction read bandwidth from this memory (bytes/s)
system.physmem.bw_inst_read::cpu09.inst         50765                       # Instruction read bandwidth from this memory (bytes/s)
system.physmem.bw_inst_read::cpu10.inst         38074                       # Instruction read bandwidth from this memory (bytes/s)
system.physmem.bw_inst_read::cpu11.inst         47593                       # Instruction read bandwidth from this memory (bytes/s)
system.physmem.bw_inst_read::cpu12.inst         50765                       # Instruction read bandwidth from this memory (bytes/s)
system.physmem.bw_inst_read::cpu13.inst         31728                       # Instruction read bandwidth from this memory (bytes/s)
system.physmem.bw_inst_read::cpu14.inst         28556                       # Instruction read bandwidth from this memory (bytes/s)
system.physmem.bw_inst_read::cpu15.inst         38074                       # Instruction read bandwidth from this memory (bytes/s)
system.physmem.bw_inst_read::cpu16.inst         63457                       # Instruction read bandwidth from this memory (bytes/s)
system.physmem.bw_inst_read::total            2389144                       # Instruction read bandwidth from this memory (bytes/s)
system.physmem.bw_write::writebacks            218926                       # Write bandwidth from this memory (bytes/s)
system.physmem.bw_write::total                 218926                       # Write bandwidth from this memory (bytes/s)
system.physmem.bw_total::writebacks            218926                       # Total bandwidth to/from this memory (bytes/s)
system.physmem.bw_total::cpu00.inst           1120010                       # Total bandwidth to/from this memory (bytes/s)
system.physmem.bw_total::cpu00.data            974060                       # Total bandwidth to/from this memory (bytes/s)
system.physmem.bw_total::cpu01.inst            222098                       # Total bandwidth to/from this memory (bytes/s)
system.physmem.bw_total::cpu01.data            282382                       # Total bandwidth to/from this memory (bytes/s)
system.physmem.bw_total::cpu02.inst             88839                       # Total bandwidth to/from this memory (bytes/s)
system.physmem.bw_total::cpu02.data            329975                       # Total bandwidth to/from this memory (bytes/s)
system.physmem.bw_total::cpu03.inst            215753                       # Total bandwidth to/from this memory (bytes/s)
system.physmem.bw_total::cpu03.data            333148                       # Total bandwidth to/from this memory (bytes/s)
system.physmem.bw_total::cpu04.inst            168160                       # Total bandwidth to/from this memory (bytes/s)
system.physmem.bw_total::cpu04.data           1069245                       # Total bandwidth to/from this memory (bytes/s)
system.physmem.bw_total::cpu05.inst             69802                       # Total bandwidth to/from this memory (bytes/s)
system.physmem.bw_total::cpu05.data            558419                       # Total bandwidth to/from this memory (bytes/s)
system.physmem.bw_total::cpu06.inst             38074                       # Total bandwidth to/from this memory (bytes/s)
system.physmem.bw_total::cpu06.data            901085                       # Total bandwidth to/from this memory (bytes/s)
system.physmem.bw_total::cpu07.inst             60284                       # Total bandwidth to/from this memory (bytes/s)
system.physmem.bw_total::cpu07.data           1186640                       # Total bandwidth to/from this memory (bytes/s)
system.physmem.bw_total::cpu08.inst             57111                       # Total bandwidth to/from this memory (bytes/s)
system.physmem.bw_total::cpu08.data           1335763                       # Total bandwidth to/from this memory (bytes/s)
system.physmem.bw_total::cpu09.inst             50765                       # Total bandwidth to/from this memory (bytes/s)
system.physmem.bw_total::cpu09.data           1662565                       # Total bandwidth to/from this memory (bytes/s)
system.physmem.bw_total::cpu10.inst             38074                       # Total bandwidth to/from this memory (bytes/s)
system.physmem.bw_total::cpu10.data           1177121                       # Total bandwidth to/from this memory (bytes/s)
system.physmem.bw_total::cpu11.inst             47593                       # Total bandwidth to/from this memory (bytes/s)
system.physmem.bw_total::cpu11.data            628221                       # Total bandwidth to/from this memory (bytes/s)
system.physmem.bw_total::cpu12.inst             50765                       # Total bandwidth to/from this memory (bytes/s)
system.physmem.bw_total::cpu12.data           1050208                       # Total bandwidth to/from this memory (bytes/s)
system.physmem.bw_total::cpu13.inst             31728                       # Total bandwidth to/from this memory (bytes/s)
system.physmem.bw_total::cpu13.data            494962                       # Total bandwidth to/from this memory (bytes/s)
system.physmem.bw_total::cpu14.inst             28556                       # Total bandwidth to/from this memory (bytes/s)
system.physmem.bw_total::cpu14.data            666295                       # Total bandwidth to/from this memory (bytes/s)
system.physmem.bw_total::cpu15.inst             38074                       # Total bandwidth to/from this memory (bytes/s)
system.physmem.bw_total::cpu15.data            406123                       # Total bandwidth to/from this memory (bytes/s)
system.physmem.bw_total::cpu16.inst             63457                       # Total bandwidth to/from this memory (bytes/s)
system.physmem.bw_total::cpu16.data            164987                       # Total bandwidth to/from this memory (bytes/s)
system.physmem.bw_total::total               15829267                       # Total bandwidth to/from this memory (bytes/s)
system.cpu00.branchPred.lookups              10073237                       # Number of BP lookups
system.cpu00.branchPred.condPredicted        10071778                       # Number of conditional branches predicted
system.cpu00.branchPred.condIncorrect             824                       # Number of conditional branches incorrect
system.cpu00.branchPred.BTBLookups           10070551                       # Number of BTB lookups
system.cpu00.branchPred.BTBHits              10070081                       # Number of BTB hits
system.cpu00.branchPred.BTBCorrect                  0                       # Number of correct BTB predictions (this stat may not work properly.
system.cpu00.branchPred.BTBHitPct           99.995333                       # BTB Hit Percentage
system.cpu00.branchPred.usedRAS                   549                       # Number of times the RAS was used to get a target.
system.cpu00.branchPred.RASInCorrect               55                       # Number of incorrect RAS predictions.
system.cpu00.dstage2_mmu.stage2_tlb.walker.walks            0                       # Table walker walks requested
system.cpu00.dstage2_mmu.stage2_tlb.walker.walkRequestOrigin_Requested::Data            0                       # Table walker requests started/completed, data/inst
system.cpu00.dstage2_mmu.stage2_tlb.walker.walkRequestOrigin_Requested::Inst            0                       # Table walker requests started/completed, data/inst
system.cpu00.dstage2_mmu.stage2_tlb.walker.walkRequestOrigin_Requested::total            0                       # Table walker requests started/completed, data/inst
system.cpu00.dstage2_mmu.stage2_tlb.walker.walkRequestOrigin_Completed::Data            0                       # Table walker requests started/completed, data/inst
system.cpu00.dstage2_mmu.stage2_tlb.walker.walkRequestOrigin_Completed::Inst            0                       # Table walker requests started/completed, data/inst
system.cpu00.dstage2_mmu.stage2_tlb.walker.walkRequestOrigin_Completed::total            0                       # Table walker requests started/completed, data/inst
system.cpu00.dstage2_mmu.stage2_tlb.walker.walkRequestOrigin::total            0                       # Table walker requests started/completed, data/inst
system.cpu00.dstage2_mmu.stage2_tlb.inst_hits            0                       # ITB inst hits
system.cpu00.dstage2_mmu.stage2_tlb.inst_misses            0                       # ITB inst misses
system.cpu00.dstage2_mmu.stage2_tlb.read_hits            0                       # DTB read hits
system.cpu00.dstage2_mmu.stage2_tlb.read_misses            0                       # DTB read misses
system.cpu00.dstage2_mmu.stage2_tlb.write_hits            0                       # DTB write hits
system.cpu00.dstage2_mmu.stage2_tlb.write_misses            0                       # DTB write misses
system.cpu00.dstage2_mmu.stage2_tlb.flush_tlb            0                       # Number of times complete TLB was flushed
system.cpu00.dstage2_mmu.stage2_tlb.flush_tlb_mva            0                       # Number of times TLB was flushed by MVA
system.cpu00.dstage2_mmu.stage2_tlb.flush_tlb_mva_asid            0                       # Number of times TLB was flushed by MVA & ASID
system.cpu00.dstage2_mmu.stage2_tlb.flush_tlb_asid            0                       # Number of times TLB was flushed by ASID
system.cpu00.dstage2_mmu.stage2_tlb.flush_entries            0                       # Number of entries that have been flushed from TLB
system.cpu00.dstage2_mmu.stage2_tlb.align_faults            0                       # Number of TLB faults due to alignment restrictions
system.cpu00.dstage2_mmu.stage2_tlb.prefetch_faults            0                       # Number of TLB faults due to prefetch
system.cpu00.dstage2_mmu.stage2_tlb.domain_faults            0                       # Number of TLB faults due to domain restrictions
system.cpu00.dstage2_mmu.stage2_tlb.perms_faults            0                       # Number of TLB faults due to permissions restrictions
system.cpu00.dstage2_mmu.stage2_tlb.read_accesses            0                       # DTB read accesses
system.cpu00.dstage2_mmu.stage2_tlb.write_accesses            0                       # DTB write accesses
system.cpu00.dstage2_mmu.stage2_tlb.inst_accesses            0                       # ITB inst accesses
system.cpu00.dstage2_mmu.stage2_tlb.hits            0                       # DTB hits
system.cpu00.dstage2_mmu.stage2_tlb.misses            0                       # DTB misses
system.cpu00.dstage2_mmu.stage2_tlb.accesses            0                       # DTB accesses
system.cpu00.dtb.walker.walks                       0                       # Table walker walks requested
system.cpu00.dtb.walker.walkRequestOrigin_Requested::Data            0                       # Table walker requests started/completed, data/inst
system.cpu00.dtb.walker.walkRequestOrigin_Requested::Inst            0                       # Table walker requests started/completed, data/inst
system.cpu00.dtb.walker.walkRequestOrigin_Requested::total            0                       # Table walker requests started/completed, data/inst
system.cpu00.dtb.walker.walkRequestOrigin_Completed::Data            0                       # Table walker requests started/completed, data/inst
system.cpu00.dtb.walker.walkRequestOrigin_Completed::Inst            0                       # Table walker requests started/completed, data/inst
system.cpu00.dtb.walker.walkRequestOrigin_Completed::total            0                       # Table walker requests started/completed, data/inst
system.cpu00.dtb.walker.walkRequestOrigin::total            0                       # Table walker requests started/completed, data/inst
system.cpu00.dtb.inst_hits                          0                       # ITB inst hits
system.cpu00.dtb.inst_misses                        0                       # ITB inst misses
system.cpu00.dtb.read_hits                          0                       # DTB read hits
system.cpu00.dtb.read_misses                        0                       # DTB read misses
system.cpu00.dtb.write_hits                         0                       # DTB write hits
system.cpu00.dtb.write_misses                       0                       # DTB write misses
system.cpu00.dtb.flush_tlb                          0                       # Number of times complete TLB was flushed
system.cpu00.dtb.flush_tlb_mva                      0                       # Number of times TLB was flushed by MVA
system.cpu00.dtb.flush_tlb_mva_asid                 0                       # Number of times TLB was flushed by MVA & ASID
system.cpu00.dtb.flush_tlb_asid                     0                       # Number of times TLB was flushed by ASID
system.cpu00.dtb.flush_entries                      0                       # Number of entries that have been flushed from TLB
system.cpu00.dtb.align_faults                       0                       # Number of TLB faults due to alignment restrictions
system.cpu00.dtb.prefetch_faults                    0                       # Number of TLB faults due to prefetch
system.cpu00.dtb.domain_faults                      0                       # Number of TLB faults due to domain restrictions
system.cpu00.dtb.perms_faults                       0                       # Number of TLB faults due to permissions restrictions
system.cpu00.dtb.read_accesses                      0                       # DTB read accesses
system.cpu00.dtb.write_accesses                     0                       # DTB write accesses
system.cpu00.dtb.inst_accesses                      0                       # ITB inst accesses
system.cpu00.dtb.hits                               0                       # DTB hits
system.cpu00.dtb.misses                             0                       # DTB misses
system.cpu00.dtb.accesses                           0                       # DTB accesses
system.cpu00.istage2_mmu.stage2_tlb.walker.walks            0                       # Table walker walks requested
system.cpu00.istage2_mmu.stage2_tlb.walker.walkRequestOrigin_Requested::Data            0                       # Table walker requests started/completed, data/inst
system.cpu00.istage2_mmu.stage2_tlb.walker.walkRequestOrigin_Requested::Inst            0                       # Table walker requests started/completed, data/inst
system.cpu00.istage2_mmu.stage2_tlb.walker.walkRequestOrigin_Requested::total            0                       # Table walker requests started/completed, data/inst
system.cpu00.istage2_mmu.stage2_tlb.walker.walkRequestOrigin_Completed::Data            0                       # Table walker requests started/completed, data/inst
system.cpu00.istage2_mmu.stage2_tlb.walker.walkRequestOrigin_Completed::Inst            0                       # Table walker requests started/completed, data/inst
system.cpu00.istage2_mmu.stage2_tlb.walker.walkRequestOrigin_Completed::total            0                       # Table walker requests started/completed, data/inst
system.cpu00.istage2_mmu.stage2_tlb.walker.walkRequestOrigin::total            0                       # Table walker requests started/completed, data/inst
system.cpu00.istage2_mmu.stage2_tlb.inst_hits            0                       # ITB inst hits
system.cpu00.istage2_mmu.stage2_tlb.inst_misses            0                       # ITB inst misses
system.cpu00.istage2_mmu.stage2_tlb.read_hits            0                       # DTB read hits
system.cpu00.istage2_mmu.stage2_tlb.read_misses            0                       # DTB read misses
system.cpu00.istage2_mmu.stage2_tlb.write_hits            0                       # DTB write hits
system.cpu00.istage2_mmu.stage2_tlb.write_misses            0                       # DTB write misses
system.cpu00.istage2_mmu.stage2_tlb.flush_tlb            0                       # Number of times complete TLB was flushed
system.cpu00.istage2_mmu.stage2_tlb.flush_tlb_mva            0                       # Number of times TLB was flushed by MVA
system.cpu00.istage2_mmu.stage2_tlb.flush_tlb_mva_asid            0                       # Number of times TLB was flushed by MVA & ASID
system.cpu00.istage2_mmu.stage2_tlb.flush_tlb_asid            0                       # Number of times TLB was flushed by ASID
system.cpu00.istage2_mmu.stage2_tlb.flush_entries            0                       # Number of entries that have been flushed from TLB
system.cpu00.istage2_mmu.stage2_tlb.align_faults            0                       # Number of TLB faults due to alignment restrictions
system.cpu00.istage2_mmu.stage2_tlb.prefetch_faults            0                       # Number of TLB faults due to prefetch
system.cpu00.istage2_mmu.stage2_tlb.domain_faults            0                       # Number of TLB faults due to domain restrictions
system.cpu00.istage2_mmu.stage2_tlb.perms_faults            0                       # Number of TLB faults due to permissions restrictions
system.cpu00.istage2_mmu.stage2_tlb.read_accesses            0                       # DTB read accesses
system.cpu00.istage2_mmu.stage2_tlb.write_accesses            0                       # DTB write accesses
system.cpu00.istage2_mmu.stage2_tlb.inst_accesses            0                       # ITB inst accesses
system.cpu00.istage2_mmu.stage2_tlb.hits            0                       # DTB hits
system.cpu00.istage2_mmu.stage2_tlb.misses            0                       # DTB misses
system.cpu00.istage2_mmu.stage2_tlb.accesses            0                       # DTB accesses
system.cpu00.itb.walker.walks                       0                       # Table walker walks requested
system.cpu00.itb.walker.walkRequestOrigin_Requested::Data            0                       # Table walker requests started/completed, data/inst
system.cpu00.itb.walker.walkRequestOrigin_Requested::Inst            0                       # Table walker requests started/completed, data/inst
system.cpu00.itb.walker.walkRequestOrigin_Requested::total            0                       # Table walker requests started/completed, data/inst
system.cpu00.itb.walker.walkRequestOrigin_Completed::Data            0                       # Table walker requests started/completed, data/inst
system.cpu00.itb.walker.walkRequestOrigin_Completed::Inst            0                       # Table walker requests started/completed, data/inst
system.cpu00.itb.walker.walkRequestOrigin_Completed::total            0                       # Table walker requests started/completed, data/inst
system.cpu00.itb.walker.walkRequestOrigin::total            0                       # Table walker requests started/completed, data/inst
system.cpu00.itb.inst_hits                          0                       # ITB inst hits
system.cpu00.itb.inst_misses                        0                       # ITB inst misses
system.cpu00.itb.read_hits                          0                       # DTB read hits
system.cpu00.itb.read_misses                        0                       # DTB read misses
system.cpu00.itb.write_hits                         0                       # DTB write hits
system.cpu00.itb.write_misses                       0                       # DTB write misses
system.cpu00.itb.flush_tlb                          0                       # Number of times complete TLB was flushed
system.cpu00.itb.flush_tlb_mva                      0                       # Number of times TLB was flushed by MVA
system.cpu00.itb.flush_tlb_mva_asid                 0                       # Number of times TLB was flushed by MVA & ASID
system.cpu00.itb.flush_tlb_asid                     0                       # Number of times TLB was flushed by ASID
system.cpu00.itb.flush_entries                      0                       # Number of entries that have been flushed from TLB
system.cpu00.itb.align_faults                       0                       # Number of TLB faults due to alignment restrictions
system.cpu00.itb.prefetch_faults                    0                       # Number of TLB faults due to prefetch
system.cpu00.itb.domain_faults                      0                       # Number of TLB faults due to domain restrictions
system.cpu00.itb.perms_faults                       0                       # Number of TLB faults due to permissions restrictions
system.cpu00.itb.read_accesses                      0                       # DTB read accesses
system.cpu00.itb.write_accesses                     0                       # DTB write accesses
system.cpu00.itb.inst_accesses                      0                       # ITB inst accesses
system.cpu00.itb.hits                               0                       # DTB hits
system.cpu00.itb.misses                             0                       # DTB misses
system.cpu00.itb.accesses                           0                       # DTB accesses
system.cpu00.workload.num_syscalls             235377                       # Number of system calls
system.cpu00.numCycles                       20171245                       # number of cpu cycles simulated
system.cpu00.numWorkItemsStarted                    0                       # number of work items this cpu started
system.cpu00.numWorkItemsCompleted                  0                       # number of work items this cpu completed
system.cpu00.fetch.icacheStallCycles             9295                       # Number of cycles fetch is stalled on an Icache miss
system.cpu00.fetch.Insts                     50367925                       # Number of instructions fetch has processed
system.cpu00.fetch.Branches                  10073237                       # Number of branches that fetch encountered
system.cpu00.fetch.predictedBranches         10070630                       # Number of branches that fetch has predicted taken
system.cpu00.fetch.Cycles                    20152712                       # Number of cycles fetch has run and was not squashing or blocked
system.cpu00.fetch.SquashCycles                  1831                       # Number of cycles fetch has spent squashing
system.cpu00.fetch.PendingTrapStallCycles          168                       # Number of stall cycles due to pending traps
system.cpu00.fetch.CacheLines                    2874                       # Number of cache lines fetched
system.cpu00.fetch.IcacheSquashes                 291                       # Number of outstanding Icache misses that were squashed
system.cpu00.fetch.rateDist::samples         20163090                       # Number of instructions fetched each cycle (Total)
system.cpu00.fetch.rateDist::mean            2.498322                       # Number of instructions fetched each cycle (Total)
system.cpu00.fetch.rateDist::stdev           0.504377                       # Number of instructions fetched each cycle (Total)
system.cpu00.fetch.rateDist::underflows             0      0.00%      0.00% # Number of instructions fetched each cycle (Total)
system.cpu00.fetch.rateDist::0                  14498      0.07%      0.07% # Number of instructions fetched each cycle (Total)
system.cpu00.fetch.rateDist::1                    856      0.00%      0.08% # Number of instructions fetched each cycle (Total)
system.cpu00.fetch.rateDist::2               10070177     49.94%     50.02% # Number of instructions fetched each cycle (Total)
system.cpu00.fetch.rateDist::3               10077559     49.98%    100.00% # Number of instructions fetched each cycle (Total)
system.cpu00.fetch.rateDist::overflows              0      0.00%    100.00% # Number of instructions fetched each cycle (Total)
system.cpu00.fetch.rateDist::min_value              0                       # Number of instructions fetched each cycle (Total)
system.cpu00.fetch.rateDist::max_value              3                       # Number of instructions fetched each cycle (Total)
system.cpu00.fetch.rateDist::total           20163090                       # Number of instructions fetched each cycle (Total)
system.cpu00.fetch.branchRate                0.499386                       # Number of branch fetches per cycle
system.cpu00.fetch.rate                      2.497016                       # Number of inst fetches per cycle
system.cpu00.decode.IdleCycles                   8743                       # Number of cycles decode is idle
system.cpu00.decode.BlockedCycles                6581                       # Number of cycles decode is blocked
system.cpu00.decode.RunCycles                20146381                       # Number of cycles decode is running
system.cpu00.decode.UnblockCycles                 672                       # Number of cycles decode is unblocking
system.cpu00.decode.SquashCycles                  713                       # Number of cycles decode is squashing
system.cpu00.decode.BranchResolved                556                       # Number of times decode resolved a branch
system.cpu00.decode.BranchMispred                 217                       # Number of times decode detected a branch misprediction
system.cpu00.decode.DecodedInsts             50369776                       # Number of instructions handled by decode
system.cpu00.decode.SquashedInsts                 483                       # Number of squashed instructions handled by decode
system.cpu00.rename.SquashCycles                  713                       # Number of cycles rename is squashing
system.cpu00.rename.IdleCycles                   9517                       # Number of cycles rename is idle
system.cpu00.rename.BlockCycles                   682                       # Number of cycles rename is blocking
system.cpu00.rename.serializeStallCycles         3539                       # count of cycles rename stalled for serializing inst
system.cpu00.rename.RunCycles                20146184                       # Number of cycles rename is running
system.cpu00.rename.UnblockCycles                2455                       # Number of cycles rename is unblocking
system.cpu00.rename.RenamedInsts             50368491                       # Number of instructions processed by rename
system.cpu00.rename.IQFullEvents                    1                       # Number of times rename has blocked due to IQ full
system.cpu00.rename.SQFullEvents                 2331                       # Number of times rename has blocked due to SQ full
system.cpu00.rename.RenamedOperands          50370244                       # Number of destination operands rename has renamed
system.cpu00.rename.RenameLookups           231699377                       # Number of register rename lookups that rename has made
system.cpu00.rename.int_rename_lookups       50374518                       # Number of integer rename lookups
system.cpu00.rename.fp_rename_lookups              16                       # Number of floating rename lookups
system.cpu00.rename.CommittedMaps            50360541                       # Number of HB maps that are committed
system.cpu00.rename.UndoneMaps                   9703                       # Number of HB maps that are undone due to squashing
system.cpu00.rename.serializingInsts               76                       # count of serializing insts renamed
system.cpu00.rename.tempSerializingInsts           75                       # count of temporary serializing insts renamed
system.cpu00.rename.skidInsts                    1227                       # count of insts added to the skid buffer
system.cpu00.memDep0.insertedLoads           20141648                       # Number of loads inserted to the mem dependence unit.
system.cpu00.memDep0.insertedStores          10073604                       # Number of stores inserted to the mem dependence unit.
system.cpu00.memDep0.conflictingLoads        10069056                       # Number of conflicting loads.
system.cpu00.memDep0.conflictingStores       10068987                       # Number of conflicting stores.
system.cpu00.iq.iqInstsAdded                 50366242                       # Number of instructions added to the IQ (excludes non-spec)
system.cpu00.iq.iqNonSpecInstsAdded                98                       # Number of non-speculative instructions added to the IQ
system.cpu00.iq.iqInstsIssued                50363920                       # Number of instructions issued
system.cpu00.iq.iqSquashedInstsIssued             327                       # Number of squashed instructions issued
system.cpu00.iq.iqSquashedInstsExamined          6614                       # Number of squashed instructions iterated over during squash; mainly for profiling
system.cpu00.iq.iqSquashedOperandsExamined        15448                       # Number of squashed operands that are examined and possibly removed from graph
system.cpu00.iq.iqSquashedNonSpecRemoved            5                       # Number of squashed non-spec instructions that were removed
system.cpu00.iq.issued_per_cycle::samples     20163090                       # Number of insts issued each cycle
system.cpu00.iq.issued_per_cycle::mean       2.497827                       # Number of insts issued each cycle
system.cpu00.iq.issued_per_cycle::stdev      0.710449                       # Number of insts issued each cycle
system.cpu00.iq.issued_per_cycle::underflows            0      0.00%      0.00% # Number of insts issued each cycle
system.cpu00.iq.issued_per_cycle::0             15862      0.08%      0.08% # Number of insts issued each cycle
system.cpu00.iq.issued_per_cycle::1           2520608     12.50%     12.58% # Number of insts issued each cycle
system.cpu00.iq.issued_per_cycle::2           5036548     24.98%     37.56% # Number of insts issued each cycle
system.cpu00.iq.issued_per_cycle::3          12590072     62.44%    100.00% # Number of insts issued each cycle
system.cpu00.iq.issued_per_cycle::overflows            0      0.00%    100.00% # Number of insts issued each cycle
system.cpu00.iq.issued_per_cycle::min_value            0                       # Number of insts issued each cycle
system.cpu00.iq.issued_per_cycle::max_value            3                       # Number of insts issued each cycle
system.cpu00.iq.issued_per_cycle::total      20163090                       # Number of insts issued each cycle
system.cpu00.iq.fu_full::No_OpClass                 0                       # attempts to use FU when none available
system.cpu00.iq.fu_full::IntAlu                     0                       # attempts to use FU when none available
system.cpu00.iq.fu_full::IntMult                    0                       # attempts to use FU when none available
system.cpu00.iq.fu_full::IntDiv                     0                       # attempts to use FU when none available
system.cpu00.iq.fu_full::FloatAdd                   0                       # attempts to use FU when none available
system.cpu00.iq.fu_full::FloatCmp                   0                       # attempts to use FU when none available
system.cpu00.iq.fu_full::FloatCvt                   0                       # attempts to use FU when none available
system.cpu00.iq.fu_full::FloatMult                  0                       # attempts to use FU when none available
system.cpu00.iq.fu_full::FloatDiv                   0                       # attempts to use FU when none available
system.cpu00.iq.fu_full::FloatSqrt                  0                       # attempts to use FU when none available
system.cpu00.iq.fu_full::SimdAdd                    0                       # attempts to use FU when none available
system.cpu00.iq.fu_full::SimdAddAcc                 0                       # attempts to use FU when none available
system.cpu00.iq.fu_full::SimdAlu                    0                       # attempts to use FU when none available
system.cpu00.iq.fu_full::SimdCmp                    0                       # attempts to use FU when none available
system.cpu00.iq.fu_full::SimdCvt                    0                       # attempts to use FU when none available
system.cpu00.iq.fu_full::SimdMisc                   0                       # attempts to use FU when none available
system.cpu00.iq.fu_full::SimdMult                   0                       # attempts to use FU when none available
system.cpu00.iq.fu_full::SimdMultAcc                0                       # attempts to use FU when none available
system.cpu00.iq.fu_full::SimdShift                  0                       # attempts to use FU when none available
system.cpu00.iq.fu_full::SimdShiftAcc               0                       # attempts to use FU when none available
system.cpu00.iq.fu_full::SimdSqrt                   0                       # attempts to use FU when none available
system.cpu00.iq.fu_full::SimdFloatAdd               0                       # attempts to use FU when none available
system.cpu00.iq.fu_full::SimdFloatAlu               0                       # attempts to use FU when none available
system.cpu00.iq.fu_full::SimdFloatCmp               0                       # attempts to use FU when none available
system.cpu00.iq.fu_full::SimdFloatCvt               0                       # attempts to use FU when none available
system.cpu00.iq.fu_full::SimdFloatDiv               0                       # attempts to use FU when none available
system.cpu00.iq.fu_full::SimdFloatMisc              0                       # attempts to use FU when none available
system.cpu00.iq.fu_full::SimdFloatMult              0                       # attempts to use FU when none available
system.cpu00.iq.fu_full::SimdFloatMultAcc            0                       # attempts to use FU when none available
system.cpu00.iq.fu_full::SimdFloatSqrt              0                       # attempts to use FU when none available
system.cpu00.iq.fu_full::MemRead                    0                       # attempts to use FU when none available
system.cpu00.iq.fu_full::MemWrite                   0                       # attempts to use FU when none available
system.cpu00.iq.fu_full::IprAccess                  0                       # attempts to use FU when none available
system.cpu00.iq.fu_full::InstPrefetch               0                       # attempts to use FU when none available
system.cpu00.iq.FU_type_0::No_OpClass               0      0.00%      0.00% # Type of FU issued
system.cpu00.iq.FU_type_0::IntAlu            20149386     40.01%     40.01% # Type of FU issued
system.cpu00.iq.FU_type_0::IntMult                  8      0.00%     40.01% # Type of FU issued
system.cpu00.iq.FU_type_0::IntDiv                   0      0.00%     40.01% # Type of FU issued
system.cpu00.iq.FU_type_0::FloatAdd                 0      0.00%     40.01% # Type of FU issued
system.cpu00.iq.FU_type_0::FloatCmp                 0      0.00%     40.01% # Type of FU issued
system.cpu00.iq.FU_type_0::FloatCvt                 0      0.00%     40.01% # Type of FU issued
system.cpu00.iq.FU_type_0::FloatMult                0      0.00%     40.01% # Type of FU issued
system.cpu00.iq.FU_type_0::FloatDiv                 0      0.00%     40.01% # Type of FU issued
system.cpu00.iq.FU_type_0::FloatSqrt                0      0.00%     40.01% # Type of FU issued
system.cpu00.iq.FU_type_0::SimdAdd                  0      0.00%     40.01% # Type of FU issued
system.cpu00.iq.FU_type_0::SimdAddAcc               0      0.00%     40.01% # Type of FU issued
system.cpu00.iq.FU_type_0::SimdAlu                  0      0.00%     40.01% # Type of FU issued
system.cpu00.iq.FU_type_0::SimdCmp                  0      0.00%     40.01% # Type of FU issued
system.cpu00.iq.FU_type_0::SimdCvt                  0      0.00%     40.01% # Type of FU issued
system.cpu00.iq.FU_type_0::SimdMisc                 0      0.00%     40.01% # Type of FU issued
system.cpu00.iq.FU_type_0::SimdMult                 0      0.00%     40.01% # Type of FU issued
system.cpu00.iq.FU_type_0::SimdMultAcc              0      0.00%     40.01% # Type of FU issued
system.cpu00.iq.FU_type_0::SimdShift                0      0.00%     40.01% # Type of FU issued
system.cpu00.iq.FU_type_0::SimdShiftAcc             0      0.00%     40.01% # Type of FU issued
system.cpu00.iq.FU_type_0::SimdSqrt                 0      0.00%     40.01% # Type of FU issued
system.cpu00.iq.FU_type_0::SimdFloatAdd             0      0.00%     40.01% # Type of FU issued
system.cpu00.iq.FU_type_0::SimdFloatAlu             0      0.00%     40.01% # Type of FU issued
system.cpu00.iq.FU_type_0::SimdFloatCmp             0      0.00%     40.01% # Type of FU issued
system.cpu00.iq.FU_type_0::SimdFloatCvt             0      0.00%     40.01% # Type of FU issued
system.cpu00.iq.FU_type_0::SimdFloatDiv             0      0.00%     40.01% # Type of FU issued
system.cpu00.iq.FU_type_0::SimdFloatMisc            3      0.00%     40.01% # Type of FU issued
system.cpu00.iq.FU_type_0::SimdFloatMult            0      0.00%     40.01% # Type of FU issued
system.cpu00.iq.FU_type_0::SimdFloatMultAcc            0      0.00%     40.01% # Type of FU issued
system.cpu00.iq.FU_type_0::SimdFloatSqrt            0      0.00%     40.01% # Type of FU issued
system.cpu00.iq.FU_type_0::MemRead           20141237     39.99%     80.00% # Type of FU issued
system.cpu00.iq.FU_type_0::MemWrite          10073286     20.00%    100.00% # Type of FU issued
system.cpu00.iq.FU_type_0::IprAccess                0      0.00%    100.00% # Type of FU issued
system.cpu00.iq.FU_type_0::InstPrefetch             0      0.00%    100.00% # Type of FU issued
system.cpu00.iq.FU_type_0::total             50363920                       # Type of FU issued
system.cpu00.iq.rate                         2.496818                       # Inst issue rate
system.cpu00.iq.fu_busy_cnt                         0                       # FU busy when requested
system.cpu00.iq.fu_busy_rate                        0                       # FU busy rate (busy events/executed inst)
system.cpu00.iq.int_inst_queue_reads        120891225                       # Number of integer instruction queue reads
system.cpu00.iq.int_inst_queue_writes        50372990                       # Number of integer instruction queue writes
system.cpu00.iq.int_inst_queue_wakeup_accesses     50362545                       # Number of integer instruction queue wakeup accesses
system.cpu00.iq.fp_inst_queue_reads                32                       # Number of floating instruction queue reads
system.cpu00.iq.fp_inst_queue_writes               16                       # Number of floating instruction queue writes
system.cpu00.iq.fp_inst_queue_wakeup_accesses           16                       # Number of floating instruction queue wakeup accesses
system.cpu00.iq.int_alu_accesses             50363904                       # Number of integer alu accesses
system.cpu00.iq.fp_alu_accesses                    16                       # Number of floating point alu accesses
system.cpu00.iew.lsq.thread0.forwLoads       10069162                       # Number of loads that had data forwarded from stores
system.cpu00.iew.lsq.thread0.invAddrLoads            0                       # Number of loads ignored due to an invalid address
system.cpu00.iew.lsq.thread0.squashedLoads         1727                       # Number of loads squashed
system.cpu00.iew.lsq.thread0.ignoredResponses            0                       # Number of memory responses ignored because the instruction is squashed
system.cpu00.iew.lsq.thread0.memOrderViolation           53                       # Number of memory ordering violations
system.cpu00.iew.lsq.thread0.squashedStores          675                       # Number of stores squashed
system.cpu00.iew.lsq.thread0.invAddrSwpfs            0                       # Number of software prefetches ignored due to an invalid address
system.cpu00.iew.lsq.thread0.blockedLoads            0                       # Number of blocked loads due to partial load-store forwarding
system.cpu00.iew.lsq.thread0.rescheduledLoads            8                       # Number of loads that were rescheduled
system.cpu00.iew.lsq.thread0.cacheBlocked            0                       # Number of times an access to memory failed due to the cache being blocked
system.cpu00.iew.iewIdleCycles                      0                       # Number of cycles IEW is idle
system.cpu00.iew.iewSquashCycles                  713                       # Number of cycles IEW is squashing
system.cpu00.iew.iewBlockCycles                   553                       # Number of cycles IEW is blocking
system.cpu00.iew.iewUnblockCycles                 131                       # Number of cycles IEW is unblocking
system.cpu00.iew.iewDispatchedInsts          50366362                       # Number of instructions dispatched to IQ
system.cpu00.iew.iewDispSquashedInsts             433                       # Number of squashed instructions skipped by dispatch
system.cpu00.iew.iewDispLoadInsts            20141648                       # Number of dispatched load instructions
system.cpu00.iew.iewDispStoreInsts           10073604                       # Number of dispatched store instructions
system.cpu00.iew.iewDispNonSpecInsts               72                       # Number of dispatched non-speculative instructions
system.cpu00.iew.iewIQFullEvents                    3                       # Number of times the IQ has become full, causing a stall
system.cpu00.iew.iewLSQFullEvents                   4                       # Number of times the LSQ has become full, causing a stall
system.cpu00.iew.memOrderViolationEvents           53                       # Number of memory order violations
system.cpu00.iew.predictedTakenIncorrect           82                       # Number of branches that were predicted taken incorrectly
system.cpu00.iew.predictedNotTakenIncorrect          572                       # Number of branches that were predicted not taken incorrectly
system.cpu00.iew.branchMispredicts                654                       # Number of branch mispredicts detected at execute
system.cpu00.iew.iewExecutedInsts            50363063                       # Number of executed instructions
system.cpu00.iew.iewExecLoadInsts            20140979                       # Number of load instructions executed
system.cpu00.iew.iewExecSquashedInsts             857                       # Number of squashed instructions skipped in execute
system.cpu00.iew.exec_swp                           0                       # number of swp insts executed
system.cpu00.iew.exec_nop                          22                       # number of nop insts executed
system.cpu00.iew.exec_refs                   30214137                       # number of memory reference insts executed
system.cpu00.iew.exec_branches               10071437                       # Number of branches executed
system.cpu00.iew.exec_stores                 10073158                       # Number of stores executed
system.cpu00.iew.exec_rate                   2.496775                       # Inst execution rate
system.cpu00.iew.wb_sent                     50362698                       # cumulative count of insts sent to commit
system.cpu00.iew.wb_count                    50362561                       # cumulative count of insts written-back
system.cpu00.iew.wb_producers                30214660                       # num instructions producing a value
system.cpu00.iew.wb_consumers                30225720                       # num instructions consuming a value
system.cpu00.iew.wb_penalized                       0                       # number of instrctions required to write to 'other' IQ
system.cpu00.iew.wb_rate                     2.496750                       # insts written-back per cycle
system.cpu00.iew.wb_fanout                   0.999634                       # average fanout of values written-back
system.cpu00.iew.wb_penalized_rate                  0                       # fraction of instructions written-back that wrote to 'other' IQ
system.cpu00.commit.commitSquashedInsts          6635                       # The number of squashed insts skipped by commit
system.cpu00.commit.commitNonSpecStalls            93                       # The number of times commit has been forced to stall to communicate backwards
system.cpu00.commit.branchMispredicts             622                       # The number of times a branch was mispredicted
system.cpu00.commit.committed_per_cycle::samples     20161883                       # Number of insts commited each cycle
system.cpu00.commit.committed_per_cycle::mean     2.497769                       # Number of insts commited each cycle
system.cpu00.commit.committed_per_cycle::stdev     1.582105                       # Number of insts commited each cycle
system.cpu00.commit.committed_per_cycle::underflows            0      0.00%      0.00% # Number of insts commited each cycle
system.cpu00.commit.committed_per_cycle::0        17159      0.09%      0.09% # Number of insts commited each cycle
system.cpu00.commit.committed_per_cycle::1     10071824     49.95%     50.04% # Number of insts commited each cycle
system.cpu00.commit.committed_per_cycle::2         1379      0.01%     50.05% # Number of insts commited each cycle
system.cpu00.commit.committed_per_cycle::3      2519127     12.49%     62.54% # Number of insts commited each cycle
system.cpu00.commit.committed_per_cycle::4      5034746     24.97%     87.51% # Number of insts commited each cycle
system.cpu00.commit.committed_per_cycle::5      2517376     12.49%    100.00% # Number of insts commited each cycle
system.cpu00.commit.committed_per_cycle::6          104      0.00%    100.00% # Number of insts commited each cycle
system.cpu00.commit.committed_per_cycle::7           69      0.00%    100.00% # Number of insts commited each cycle
system.cpu00.commit.committed_per_cycle::8           99      0.00%    100.00% # Number of insts commited each cycle
system.cpu00.commit.committed_per_cycle::overflows            0      0.00%    100.00% # Number of insts commited each cycle
system.cpu00.commit.committed_per_cycle::min_value            0                       # Number of insts commited each cycle
system.cpu00.commit.committed_per_cycle::max_value            8                       # Number of insts commited each cycle
system.cpu00.commit.committed_per_cycle::total     20161883                       # Number of insts commited each cycle
system.cpu00.commit.committedInsts           50356017                       # Number of instructions committed
system.cpu00.commit.committedOps             50359726                       # Number of ops (including micro ops) committed
system.cpu00.commit.swp_count                       0                       # Number of s/w prefetches committed
system.cpu00.commit.refs                     30212850                       # Number of memory references committed
system.cpu00.commit.loads                    20139921                       # Number of loads committed
system.cpu00.commit.membars                        26                       # Number of memory barriers committed
system.cpu00.commit.branches                 10070951                       # Number of branches committed
system.cpu00.commit.fp_insts                       16                       # Number of committed floating point instructions.
system.cpu00.commit.int_insts                40289261                       # Number of committed integer instructions.
system.cpu00.commit.function_calls                202                       # Number of function calls committed.
system.cpu00.commit.op_class_0::No_OpClass            0      0.00%      0.00% # Class of committed instruction
system.cpu00.commit.op_class_0::IntAlu       20146865     40.01%     40.01% # Class of committed instruction
system.cpu00.commit.op_class_0::IntMult             8      0.00%     40.01% # Class of committed instruction
system.cpu00.commit.op_class_0::IntDiv              0      0.00%     40.01% # Class of committed instruction
system.cpu00.commit.op_class_0::FloatAdd            0      0.00%     40.01% # Class of committed instruction
system.cpu00.commit.op_class_0::FloatCmp            0      0.00%     40.01% # Class of committed instruction
system.cpu00.commit.op_class_0::FloatCvt            0      0.00%     40.01% # Class of committed instruction
system.cpu00.commit.op_class_0::FloatMult            0      0.00%     40.01% # Class of committed instruction
system.cpu00.commit.op_class_0::FloatDiv            0      0.00%     40.01% # Class of committed instruction
system.cpu00.commit.op_class_0::FloatSqrt            0      0.00%     40.01% # Class of committed instruction
system.cpu00.commit.op_class_0::SimdAdd             0      0.00%     40.01% # Class of committed instruction
system.cpu00.commit.op_class_0::SimdAddAcc            0      0.00%     40.01% # Class of committed instruction
system.cpu00.commit.op_class_0::SimdAlu             0      0.00%     40.01% # Class of committed instruction
system.cpu00.commit.op_class_0::SimdCmp             0      0.00%     40.01% # Class of committed instruction
system.cpu00.commit.op_class_0::SimdCvt             0      0.00%     40.01% # Class of committed instruction
system.cpu00.commit.op_class_0::SimdMisc            0      0.00%     40.01% # Class of committed instruction
system.cpu00.commit.op_class_0::SimdMult            0      0.00%     40.01% # Class of committed instruction
system.cpu00.commit.op_class_0::SimdMultAcc            0      0.00%     40.01% # Class of committed instruction
system.cpu00.commit.op_class_0::SimdShift            0      0.00%     40.01% # Class of committed instruction
system.cpu00.commit.op_class_0::SimdShiftAcc            0      0.00%     40.01% # Class of committed instruction
system.cpu00.commit.op_class_0::SimdSqrt            0      0.00%     40.01% # Class of committed instruction
system.cpu00.commit.op_class_0::SimdFloatAdd            0      0.00%     40.01% # Class of committed instruction
system.cpu00.commit.op_class_0::SimdFloatAlu            0      0.00%     40.01% # Class of committed instruction
system.cpu00.commit.op_class_0::SimdFloatCmp            0      0.00%     40.01% # Class of committed instruction
system.cpu00.commit.op_class_0::SimdFloatCvt            0      0.00%     40.01% # Class of committed instruction
system.cpu00.commit.op_class_0::SimdFloatDiv            0      0.00%     40.01% # Class of committed instruction
system.cpu00.commit.op_class_0::SimdFloatMisc            3      0.00%     40.01% # Class of committed instruction
system.cpu00.commit.op_class_0::SimdFloatMult            0      0.00%     40.01% # Class of committed instruction
system.cpu00.commit.op_class_0::SimdFloatMultAcc            0      0.00%     40.01% # Class of committed instruction
system.cpu00.commit.op_class_0::SimdFloatSqrt            0      0.00%     40.01% # Class of committed instruction
system.cpu00.commit.op_class_0::MemRead      20139921     39.99%     80.00% # Class of committed instruction
system.cpu00.commit.op_class_0::MemWrite     10072929     20.00%    100.00% # Class of committed instruction
system.cpu00.commit.op_class_0::IprAccess            0      0.00%    100.00% # Class of committed instruction
system.cpu00.commit.op_class_0::InstPrefetch            0      0.00%    100.00% # Class of committed instruction
system.cpu00.commit.op_class_0::total        50359726                       # Class of committed instruction
system.cpu00.commit.bw_lim_events                  99                       # number cycles where commit BW limit reached
system.cpu00.rob.rob_reads                   70527624                       # The number of ROB reads
system.cpu00.rob.rob_writes                 100733934                       # The number of ROB writes
system.cpu00.timesIdled                           247                       # Number of times that the entire CPU went into an idle state and unscheduled itself
system.cpu00.idleCycles                          8155                       # Total number of cycles that the CPU has spent unscheduled due to idling
system.cpu00.committedInsts                  50356017                       # Number of Instructions Simulated
system.cpu00.committedOps                    50359726                       # Number of Ops (including micro ops) Simulated
system.cpu00.cpi                             0.400573                       # CPI: Cycles Per Instruction
system.cpu00.cpi_total                       0.400573                       # CPI: Total CPI of All Threads
system.cpu00.ipc                             2.496426                       # IPC: Instructions Per Cycle
system.cpu00.ipc_total                       2.496426                       # IPC: Total IPC of All Threads
system.cpu00.int_regfile_reads               50366388                       # number of integer regfile reads
system.cpu00.int_regfile_writes              20148202                       # number of integer regfile writes
system.cpu00.fp_regfile_reads                    2576                       # number of floating regfile reads
system.cpu00.cc_regfile_reads               211510617                       # number of cc regfile reads
system.cpu00.cc_regfile_writes               30215356                       # number of cc regfile writes
system.cpu00.misc_regfile_reads              31227630                       # number of misc regfile reads
system.cpu00.misc_regfile_writes                   54                       # number of misc regfile writes
system.cpu00.dcache.tags.replacements              59                       # number of replacements
system.cpu00.dcache.tags.tagsinuse         153.488175                       # Cycle average of tags in use
system.cpu00.dcache.tags.total_refs          20141401                       # Total number of references to valid blocks.
system.cpu00.dcache.tags.sampled_refs             232                       # Sample count of references to valid blocks.
system.cpu00.dcache.tags.avg_refs        86816.383621                       # Average number of references to valid blocks.
system.cpu00.dcache.tags.warmup_cycle               0                       # Cycle when the warmup percentage was hit.
system.cpu00.dcache.tags.occ_blocks::cpu00.data   153.488175                       # Average occupied blocks per requestor
system.cpu00.dcache.tags.occ_percent::cpu00.data     0.299782                       # Average percentage of cache occupancy
system.cpu00.dcache.tags.occ_percent::total     0.299782                       # Average percentage of cache occupancy
system.cpu00.dcache.tags.occ_task_id_blocks::1024          173                       # Occupied blocks per task id
system.cpu00.dcache.tags.age_task_id_blocks_1024::0           27                       # Occupied blocks per task id
system.cpu00.dcache.tags.age_task_id_blocks_1024::4          146                       # Occupied blocks per task id
system.cpu00.dcache.tags.occ_task_id_percent::1024     0.337891                       # Percentage of cache occupancy per task id
system.cpu00.dcache.tags.tag_accesses        40289304                       # Number of tag accesses
system.cpu00.dcache.tags.data_accesses       40289304                       # Number of data accesses
system.cpu00.dcache.ReadReq_hits::cpu00.data     10071341                       # number of ReadReq hits
system.cpu00.dcache.ReadReq_hits::total      10071341                       # number of ReadReq hits
system.cpu00.dcache.WriteReq_hits::cpu00.data     10070340                       # number of WriteReq hits
system.cpu00.dcache.WriteReq_hits::total     10070340                       # number of WriteReq hits
system.cpu00.dcache.LoadLockedReq_hits::cpu00.data           22                       # number of LoadLockedReq hits
system.cpu00.dcache.LoadLockedReq_hits::total           22                       # number of LoadLockedReq hits
system.cpu00.dcache.StoreCondReq_hits::cpu00.data           24                       # number of StoreCondReq hits
system.cpu00.dcache.StoreCondReq_hits::total           24                       # number of StoreCondReq hits
system.cpu00.dcache.demand_hits::cpu00.data     20141681                       # number of demand (read+write) hits
system.cpu00.dcache.demand_hits::total       20141681                       # number of demand (read+write) hits
system.cpu00.dcache.overall_hits::cpu00.data     20141681                       # number of overall hits
system.cpu00.dcache.overall_hits::total      20141681                       # number of overall hits
system.cpu00.dcache.ReadReq_misses::cpu00.data          234                       # number of ReadReq misses
system.cpu00.dcache.ReadReq_misses::total          234                       # number of ReadReq misses
system.cpu00.dcache.WriteReq_misses::cpu00.data         2504                       # number of WriteReq misses
system.cpu00.dcache.WriteReq_misses::total         2504                       # number of WriteReq misses
system.cpu00.dcache.LoadLockedReq_misses::cpu00.data            3                       # number of LoadLockedReq misses
system.cpu00.dcache.LoadLockedReq_misses::total            3                       # number of LoadLockedReq misses
system.cpu00.dcache.StoreCondReq_misses::cpu00.data            1                       # number of StoreCondReq misses
system.cpu00.dcache.StoreCondReq_misses::total            1                       # number of StoreCondReq misses
system.cpu00.dcache.demand_misses::cpu00.data         2738                       # number of demand (read+write) misses
system.cpu00.dcache.demand_misses::total         2738                       # number of demand (read+write) misses
system.cpu00.dcache.overall_misses::cpu00.data         2738                       # number of overall misses
system.cpu00.dcache.overall_misses::total         2738                       # number of overall misses
system.cpu00.dcache.ReadReq_miss_latency::cpu00.data      9989990                       # number of ReadReq miss cycles
system.cpu00.dcache.ReadReq_miss_latency::total      9989990                       # number of ReadReq miss cycles
system.cpu00.dcache.WriteReq_miss_latency::cpu00.data    123487000                       # number of WriteReq miss cycles
system.cpu00.dcache.WriteReq_miss_latency::total    123487000                       # number of WriteReq miss cycles
system.cpu00.dcache.LoadLockedReq_miss_latency::cpu00.data       133500                       # number of LoadLockedReq miss cycles
system.cpu00.dcache.LoadLockedReq_miss_latency::total       133500                       # number of LoadLockedReq miss cycles
system.cpu00.dcache.StoreCondReq_miss_latency::cpu00.data         7500                       # number of StoreCondReq miss cycles
system.cpu00.dcache.StoreCondReq_miss_latency::total         7500                       # number of StoreCondReq miss cycles
system.cpu00.dcache.demand_miss_latency::cpu00.data    133476990                       # number of demand (read+write) miss cycles
system.cpu00.dcache.demand_miss_latency::total    133476990                       # number of demand (read+write) miss cycles
system.cpu00.dcache.overall_miss_latency::cpu00.data    133476990                       # number of overall miss cycles
system.cpu00.dcache.overall_miss_latency::total    133476990                       # number of overall miss cycles
system.cpu00.dcache.ReadReq_accesses::cpu00.data     10071575                       # number of ReadReq accesses(hits+misses)
system.cpu00.dcache.ReadReq_accesses::total     10071575                       # number of ReadReq accesses(hits+misses)
system.cpu00.dcache.WriteReq_accesses::cpu00.data     10072844                       # number of WriteReq accesses(hits+misses)
system.cpu00.dcache.WriteReq_accesses::total     10072844                       # number of WriteReq accesses(hits+misses)
system.cpu00.dcache.LoadLockedReq_accesses::cpu00.data           25                       # number of LoadLockedReq accesses(hits+misses)
system.cpu00.dcache.LoadLockedReq_accesses::total           25                       # number of LoadLockedReq accesses(hits+misses)
system.cpu00.dcache.StoreCondReq_accesses::cpu00.data           25                       # number of StoreCondReq accesses(hits+misses)
system.cpu00.dcache.StoreCondReq_accesses::total           25                       # number of StoreCondReq accesses(hits+misses)
system.cpu00.dcache.demand_accesses::cpu00.data     20144419                       # number of demand (read+write) accesses
system.cpu00.dcache.demand_accesses::total     20144419                       # number of demand (read+write) accesses
system.cpu00.dcache.overall_accesses::cpu00.data     20144419                       # number of overall (read+write) accesses
system.cpu00.dcache.overall_accesses::total     20144419                       # number of overall (read+write) accesses
system.cpu00.dcache.ReadReq_miss_rate::cpu00.data     0.000023                       # miss rate for ReadReq accesses
system.cpu00.dcache.ReadReq_miss_rate::total     0.000023                       # miss rate for ReadReq accesses
system.cpu00.dcache.WriteReq_miss_rate::cpu00.data     0.000249                       # miss rate for WriteReq accesses
system.cpu00.dcache.WriteReq_miss_rate::total     0.000249                       # miss rate for WriteReq accesses
[...]
system.tol2bus.pkt_count_system.cpu10.dcache.mem_side::system.l2.cpu_side       448425                       # Packet count per connected master and slave (bytes)
system.tol2bus.pkt_count_system.cpu11.icache.mem_side::system.l2.cpu_side         1752                       # Packet count per connected master and slave (bytes)
system.tol2bus.pkt_count_system.cpu11.dcache.mem_side::system.l2.cpu_side       417470                       # Packet count per connected master and slave (bytes)
system.tol2bus.pkt_count_system.cpu12.icache.mem_side::system.l2.cpu_side         1730                       # Packet count per connected master and slave (bytes)
system.tol2bus.pkt_count_system.cpu12.dcache.mem_side::system.l2.cpu_side       426630                       # Packet count per connected master and slave (bytes)
system.tol2bus.pkt_count_system.cpu13.icache.mem_side::system.l2.cpu_side         1576                       # Packet count per connected master and slave (bytes)
system.tol2bus.pkt_count_system.cpu13.dcache.mem_side::system.l2.cpu_side       449557                       # Packet count per connected master and slave (bytes)
system.tol2bus.pkt_count_system.cpu14.icache.mem_side::system.l2.cpu_side         1545                       # Packet count per connected master and slave (bytes)
system.tol2bus.pkt_count_system.cpu14.dcache.mem_side::system.l2.cpu_side       334301                       # Packet count per connected master and slave (bytes)
system.tol2bus.pkt_count_system.cpu15.icache.mem_side::system.l2.cpu_side         1586                       # Packet count per connected master and slave (bytes)
system.tol2bus.pkt_count_system.cpu15.dcache.mem_side::system.l2.cpu_side       358135                       # Packet count per connected master and slave (bytes)
system.tol2bus.pkt_count_system.cpu16.icache.mem_side::system.l2.cpu_side         1738                       # Packet count per connected master and slave (bytes)
system.tol2bus.pkt_count_system.cpu16.dcache.mem_side::system.l2.cpu_side       223038                       # Packet count per connected master and slave (bytes)
system.tol2bus.pkt_count::total               5512310                       # Packet count per connected master and slave (bytes)
system.tol2bus.pkt_size_system.cpu00.icache.mem_side::system.l2.cpu_side        24768                       # Cumulative packet size per connected master and slave (bytes)
system.tol2bus.pkt_size_system.cpu00.dcache.mem_side::system.l2.cpu_side        24000                       # Cumulative packet size per connected master and slave (bytes)
system.tol2bus.pkt_size_system.cpu01.icache.mem_side::system.l2.cpu_side        54528                       # Cumulative packet size per connected master and slave (bytes)
system.tol2bus.pkt_size_system.cpu01.dcache.mem_side::system.l2.cpu_side        16384                       # Cumulative packet size per connected master and slave (bytes)
system.tol2bus.pkt_size_system.cpu02.icache.mem_side::system.l2.cpu_side        51776                       # Cumulative packet size per connected master and slave (bytes)
system.tol2bus.pkt_size_system.cpu02.dcache.mem_side::system.l2.cpu_side        21696                       # Cumulative packet size per connected master and slave (bytes)
system.tol2bus.pkt_size_system.cpu03.icache.mem_side::system.l2.cpu_side        52864                       # Cumulative packet size per connected master and slave (bytes)
system.tol2bus.pkt_size_system.cpu03.dcache.mem_side::system.l2.cpu_side        19584                       # Cumulative packet size per connected master and slave (bytes)
system.tol2bus.pkt_size_system.cpu04.icache.mem_side::system.l2.cpu_side        50112                       # Cumulative packet size per connected master and slave (bytes)
system.tol2bus.pkt_size_system.cpu04.dcache.mem_side::system.l2.cpu_side        70144                       # Cumulative packet size per connected master and slave (bytes)
system.tol2bus.pkt_size_system.cpu05.icache.mem_side::system.l2.cpu_side        53312                       # Cumulative packet size per connected master and slave (bytes)
system.tol2bus.pkt_size_system.cpu05.dcache.mem_side::system.l2.cpu_side        35392                       # Cumulative packet size per connected master and slave (bytes)
system.tol2bus.pkt_size_system.cpu06.icache.mem_side::system.l2.cpu_side        58176                       # Cumulative packet size per connected master and slave (bytes)
system.tol2bus.pkt_size_system.cpu06.dcache.mem_side::system.l2.cpu_side        65664                       # Cumulative packet size per connected master and slave (bytes)
system.tol2bus.pkt_size_system.cpu07.icache.mem_side::system.l2.cpu_side        59136                       # Cumulative packet size per connected master and slave (bytes)
system.tol2bus.pkt_size_system.cpu07.dcache.mem_side::system.l2.cpu_side        77312                       # Cumulative packet size per connected master and slave (bytes)
system.tol2bus.pkt_size_system.cpu08.icache.mem_side::system.l2.cpu_side        55616                       # Cumulative packet size per connected master and slave (bytes)
system.tol2bus.pkt_size_system.cpu08.dcache.mem_side::system.l2.cpu_side        98112                       # Cumulative packet size per connected master and slave (bytes)
system.tol2bus.pkt_size_system.cpu09.icache.mem_side::system.l2.cpu_side        52736                       # Cumulative packet size per connected master and slave (bytes)
system.tol2bus.pkt_size_system.cpu09.dcache.mem_side::system.l2.cpu_side       101760                       # Cumulative packet size per connected master and slave (bytes)
system.tol2bus.pkt_size_system.cpu10.icache.mem_side::system.l2.cpu_side        56000                       # Cumulative packet size per connected master and slave (bytes)
system.tol2bus.pkt_size_system.cpu10.dcache.mem_side::system.l2.cpu_side       112000                       # Cumulative packet size per connected master and slave (bytes)
system.tol2bus.pkt_size_system.cpu11.icache.mem_side::system.l2.cpu_side        56064                       # Cumulative packet size per connected master and slave (bytes)
system.tol2bus.pkt_size_system.cpu11.dcache.mem_side::system.l2.cpu_side        88960                       # Cumulative packet size per connected master and slave (bytes)
system.tol2bus.pkt_size_system.cpu12.icache.mem_side::system.l2.cpu_side        55360                       # Cumulative packet size per connected master and slave (bytes)
system.tol2bus.pkt_size_system.cpu12.dcache.mem_side::system.l2.cpu_side       135232                       # Cumulative packet size per connected master and slave (bytes)
system.tol2bus.pkt_size_system.cpu13.icache.mem_side::system.l2.cpu_side        50432                       # Cumulative packet size per connected master and slave (bytes)
system.tol2bus.pkt_size_system.cpu13.dcache.mem_side::system.l2.cpu_side        65024                       # Cumulative packet size per connected master and slave (bytes)
system.tol2bus.pkt_size_system.cpu14.icache.mem_side::system.l2.cpu_side        49408                       # Cumulative packet size per connected master and slave (bytes)
system.tol2bus.pkt_size_system.cpu14.dcache.mem_side::system.l2.cpu_side        67200                       # Cumulative packet size per connected master and slave (bytes)
system.tol2bus.pkt_size_system.cpu15.icache.mem_side::system.l2.cpu_side        50752                       # Cumulative packet size per connected master and slave (bytes)
system.tol2bus.pkt_size_system.cpu15.dcache.mem_side::system.l2.cpu_side        31040                       # Cumulative packet size per connected master and slave (bytes)
system.tol2bus.pkt_size_system.cpu16.icache.mem_side::system.l2.cpu_side        55616                       # Cumulative packet size per connected master and slave (bytes)
system.tol2bus.pkt_size_system.cpu16.dcache.mem_side::system.l2.cpu_side        11200                       # Cumulative packet size per connected master and slave (bytes)
system.tol2bus.pkt_size::total                1927360                       # Cumulative packet size per connected master and slave (bytes)
system.tol2bus.snoops                         5082749                       # Total snoops (count)
system.tol2bus.snoop_fanout::samples          5297850                       # Request fanout histogram
system.tol2bus.snoop_fanout::mean                  33                       # Request fanout histogram
system.tol2bus.snoop_fanout::stdev                  0                       # Request fanout histogram
system.tol2bus.snoop_fanout::underflows             0      0.00%      0.00% # Request fanout histogram
system.tol2bus.snoop_fanout::0                      0      0.00%      0.00% # Request fanout histogram
system.tol2bus.snoop_fanout::1                      0      0.00%      0.00% # Request fanout histogram
system.tol2bus.snoop_fanout::2                      0      0.00%      0.00% # Request fanout histogram
system.tol2bus.snoop_fanout::3                      0      0.00%      0.00% # Request fanout histogram
system.tol2bus.snoop_fanout::4                      0      0.00%      0.00% # Request fanout histogram
system.tol2bus.snoop_fanout::5                      0      0.00%      0.00% # Request fanout histogram
system.tol2bus.snoop_fanout::6                      0      0.00%      0.00% # Request fanout histogram
system.tol2bus.snoop_fanout::7                      0      0.00%      0.00% # Request fanout histogram
system.tol2bus.snoop_fanout::8                      0      0.00%      0.00% # Request fanout histogram
system.tol2bus.snoop_fanout::9                      0      0.00%      0.00% # Request fanout histogram
system.tol2bus.snoop_fanout::10                     0      0.00%      0.00% # Request fanout histogram
system.tol2bus.snoop_fanout::11                     0      0.00%      0.00% # Request fanout histogram
system.tol2bus.snoop_fanout::12                     0      0.00%      0.00% # Request fanout histogram
system.tol2bus.snoop_fanout::13                     0      0.00%      0.00% # Request fanout histogram
system.tol2bus.snoop_fanout::14                     0      0.00%      0.00% # Request fanout histogram
system.tol2bus.snoop_fanout::15                     0      0.00%      0.00% # Request fanout histogram
system.tol2bus.snoop_fanout::16                     0      0.00%      0.00% # Request fanout histogram
system.tol2bus.snoop_fanout::17                     0      0.00%      0.00% # Request fanout histogram
system.tol2bus.snoop_fanout::18                     0      0.00%      0.00% # Request fanout histogram
system.tol2bus.snoop_fanout::19                     0      0.00%      0.00% # Request fanout histogram
system.tol2bus.snoop_fanout::20                     0      0.00%      0.00% # Request fanout histogram
system.tol2bus.snoop_fanout::21                     0      0.00%      0.00% # Request fanout histogram
system.tol2bus.snoop_fanout::22                     0      0.00%      0.00% # Request fanout histogram
system.tol2bus.snoop_fanout::23                     0      0.00%      0.00% # Request fanout histogram
system.tol2bus.snoop_fanout::24                     0      0.00%      0.00% # Request fanout histogram
system.tol2bus.snoop_fanout::25                     0      0.00%      0.00% # Request fanout histogram
system.tol2bus.snoop_fanout::26                     0      0.00%      0.00% # Request fanout histogram
system.tol2bus.snoop_fanout::27                     0      0.00%      0.00% # Request fanout histogram
system.tol2bus.snoop_fanout::28                     0      0.00%      0.00% # Request fanout histogram
system.tol2bus.snoop_fanout::29                     0      0.00%      0.00% # Request fanout histogram
system.tol2bus.snoop_fanout::30                     0      0.00%      0.00% # Request fanout histogram
system.tol2bus.snoop_fanout::31                     0      0.00%      0.00% # Request fanout histogram
system.tol2bus.snoop_fanout::32                     0      0.00%      0.00% # Request fanout histogram
system.tol2bus.snoop_fanout::33               5297850    100.00%    100.00% # Request fanout histogram
system.tol2bus.snoop_fanout::34                     0      0.00%    100.00% # Request fanout histogram
system.tol2bus.snoop_fanout::overflows              0      0.00%    100.00% # Request fanout histogram
system.tol2bus.snoop_fanout::min_value             33                       # Request fanout histogram
system.tol2bus.snoop_fanout::max_value             33                       # Request fanout histogram
system.tol2bus.snoop_fanout::total            5297850                       # Request fanout histogram
system.tol2bus.reqLayer0.occupancy         2677759910                       # Layer occupancy (ticks)
system.tol2bus.reqLayer0.utilization             13.3                       # Layer utilization (%)
system.tol2bus.respLayer0.occupancy            581498                       # Layer occupancy (ticks)
system.tol2bus.respLayer0.utilization             0.0                       # Layer utilization (%)
system.tol2bus.respLayer1.occupancy            554994                       # Layer occupancy (ticks)
system.tol2bus.respLayer1.utilization             0.0                       # Layer utilization (%)
system.tol2bus.respLayer4.occupancy           1298912                       # Layer occupancy (ticks)
system.tol2bus.respLayer4.utilization             0.0                       # Layer utilization (%)
system.tol2bus.respLayer5.occupancy         316184003                       # Layer occupancy (ticks)
system.tol2bus.respLayer5.utilization             1.6                       # Layer utilization (%)
system.tol2bus.respLayer8.occupancy           1248858                       # Layer occupancy (ticks)
system.tol2bus.respLayer8.utilization             0.0                       # Layer utilization (%)
system.tol2bus.respLayer9.occupancy         345561657                       # Layer occupancy (ticks)
system.tol2bus.respLayer9.utilization             1.7                       # Layer utilization (%)
system.tol2bus.respLayer12.occupancy          1266900                       # Layer occupancy (ticks)
system.tol2bus.respLayer12.utilization            0.0                       # Layer utilization (%)
system.tol2bus.respLayer13.occupancy        317370271                       # Layer occupancy (ticks)
system.tol2bus.respLayer13.utilization            1.6                       # Layer utilization (%)
system.tol2bus.respLayer16.occupancy          1195424                       # Layer occupancy (ticks)
system.tol2bus.respLayer16.utilization            0.0                       # Layer utilization (%)
system.tol2bus.respLayer17.occupancy        609935873                       # Layer occupancy (ticks)
system.tol2bus.respLayer17.utilization            3.0                       # Layer utilization (%)
system.tol2bus.respLayer20.occupancy          1253478                       # Layer occupancy (ticks)
system.tol2bus.respLayer20.utilization            0.0                       # Layer utilization (%)
system.tol2bus.respLayer21.occupancy        400496997                       # Layer occupancy (ticks)
system.tol2bus.respLayer21.utilization            2.0                       # Layer utilization (%)
system.tol2bus.respLayer24.occupancy          1371984                       # Layer occupancy (ticks)
system.tol2bus.respLayer24.utilization            0.0                       # Layer utilization (%)
system.tol2bus.respLayer25.occupancy        609006552                       # Layer occupancy (ticks)
system.tol2bus.respLayer25.utilization            3.0                       # Layer utilization (%)
system.tol2bus.respLayer28.occupancy          1396942                       # Layer occupancy (ticks)
system.tol2bus.respLayer28.utilization            0.0                       # Layer utilization (%)
system.tol2bus.respLayer29.occupancy        645484642                       # Layer occupancy (ticks)
system.tol2bus.respLayer29.utilization            3.2                       # Layer utilization (%)
system.tol2bus.respLayer32.occupancy          1306989                       # Layer occupancy (ticks)
system.tol2bus.respLayer32.utilization            0.0                       # Layer utilization (%)
system.tol2bus.respLayer33.occupancy        556019722                       # Layer occupancy (ticks)
system.tol2bus.respLayer33.utilization            2.8                       # Layer utilization (%)
system.tol2bus.respLayer36.occupancy          1241493                       # Layer occupancy (ticks)
system.tol2bus.respLayer36.utilization            0.0                       # Layer utilization (%)
system.tol2bus.respLayer37.occupancy        654945934                       # Layer occupancy (ticks)
system.tol2bus.respLayer37.utilization            3.2                       # Layer utilization (%)
system.tol2bus.respLayer40.occupancy          1314490                       # Layer occupancy (ticks)
system.tol2bus.respLayer40.utilization            0.0                       # Layer utilization (%)
system.tol2bus.respLayer41.occupancy        700211838                       # Layer occupancy (ticks)
system.tol2bus.respLayer41.utilization            3.5                       # Layer utilization (%)
system.tol2bus.respLayer44.occupancy          1315986                       # Layer occupancy (ticks)
system.tol2bus.respLayer44.utilization            0.0                       # Layer utilization (%)
system.tol2bus.respLayer45.occupancy        644757818                       # Layer occupancy (ticks)
system.tol2bus.respLayer45.utilization            3.2                       # Layer utilization (%)
system.tol2bus.respLayer48.occupancy          1299497                       # Layer occupancy (ticks)
system.tol2bus.respLayer48.utilization            0.0                       # Layer utilization (%)
system.tol2bus.respLayer49.occupancy        657078558                       # Layer occupancy (ticks)
system.tol2bus.respLayer49.utilization            3.3                       # Layer utilization (%)
system.tol2bus.respLayer52.occupancy          1190957                       # Layer occupancy (ticks)
system.tol2bus.respLayer52.utilization            0.0                       # Layer utilization (%)
system.tol2bus.respLayer53.occupancy        706775942                       # Layer occupancy (ticks)
system.tol2bus.respLayer53.utilization            3.5                       # Layer utilization (%)
system.tol2bus.respLayer56.occupancy          1167966                       # Layer occupancy (ticks)
system.tol2bus.respLayer56.utilization            0.0                       # Layer utilization (%)
system.tol2bus.respLayer57.occupancy        514907371                       # Layer occupancy (ticks)
system.tol2bus.respLayer57.utilization            2.6                       # Layer utilization (%)
system.tol2bus.respLayer60.occupancy          1191995                       # Layer occupancy (ticks)
system.tol2bus.respLayer60.utilization            0.0                       # Layer utilization (%)
system.tol2bus.respLayer61.occupancy        574978166                       # Layer occupancy (ticks)
system.tol2bus.respLayer61.utilization            2.9                       # Layer utilization (%)
system.tol2bus.respLayer64.occupancy          1304993                       # Layer occupancy (ticks)
system.tol2bus.respLayer64.utilization            0.0                       # Layer utilization (%)
system.tol2bus.respLayer65.occupancy        360872118                       # Layer occupancy (ticks)
system.tol2bus.respLayer65.utilization            1.8                       # Layer utilization (%)

---------- End Simulation Statistics   ----------
