
---------- Begin Simulation Statistics ----------
sim_seconds                                  0.040023                       # Number of seconds simulated
sim_ticks                                 40023296000                       # Number of ticks simulated
final_tick                                40023296000                       # Number of ticks from beginning of simulation (restored from checkpoints and never reset)
sim_freq                                 1000000000000                       # Frequency of simulated ticks
host_inst_rate                                 167911                       # Simulator instruction rate (inst/s)
host_op_rate                                   173699                       # Simulator op (including micro ops) rate (op/s)
host_tick_rate                               38730979                       # Simulator tick rate (ticks/s)
host_mem_usage                                 701180                       # Number of bytes of host memory used
host_seconds                                  1033.37                       # Real time elapsed on the host
sim_insts                                   173513708                       # Number of instructions simulated
sim_ops                                     179494841                       # Number of ops (including micro ops) simulated
system.voltage_domain.voltage                       1                       # Voltage in Volts
system.clk_domain.clock                          1000                       # Clock period in ticks
system.physmem.bytes_read::cpu0.inst            20288                       # Number of bytes read from this memory
system.physmem.bytes_read::cpu0.data            17152                       # Number of bytes read from this memory
system.physmem.bytes_read::cpu1.inst             5184                       # Number of bytes read from this memory
system.physmem.bytes_read::cpu1.data          2171456                       # Number of bytes read from this memory
system.physmem.bytes_read::cpu2.inst             3200                       # Number of bytes read from this memory
system.physmem.bytes_read::cpu2.data          2161472                       # Number of bytes read from this memory
system.physmem.bytes_read::cpu3.inst             7872                       # Number of bytes read from this memory
system.physmem.bytes_read::cpu3.data          2352064                       # Number of bytes read from this memory
system.physmem.bytes_read::cpu4.inst             5312                       # Number of bytes read from this memory
system.physmem.bytes_read::cpu4.data          2205568                       # Number of bytes read from this memory
system.physmem.bytes_read::total              8949568                       # Number of bytes read from this memory
system.physmem.bytes_inst_read::cpu0.inst        20288                       # Number of instructions bytes read from this memory
system.physmem.bytes_inst_read::cpu1.inst         5184                       # Number of instructions bytes read from this memory
system.physmem.bytes_inst_read::cpu2.inst         3200                       # Number of instructions bytes read from this memory
system.physmem.bytes_inst_read::cpu3.inst         7872                       # Number of instructions bytes read from this memory
system.physmem.bytes_inst_read::cpu4.inst         5312                       # Number of instructions bytes read from this memory
system.physmem.bytes_inst_read::total           41856                       # Number of instructions bytes read from this memory
system.physmem.bytes_written::writebacks       176704                       # Number of bytes written to this memory
system.physmem.bytes_written::total            176704                       # Number of bytes written to this memory
system.physmem.num_reads::cpu0.inst               317                       # Number of read requests responded to by this memory
system.physmem.num_reads::cpu0.data               268                       # Number of read requests responded to by this memory
system.physmem.num_reads::cpu1.inst                81                       # Number of read requests responded to by this memory
system.physmem.num_reads::cpu1.data             33929                       # Number of read requests responded to by this memory
system.physmem.num_reads::cpu2.inst                50                       # Number of read requests responded to by this memory
system.physmem.num_reads::cpu2.data             33773                       # Number of read requests responded to by this memory
system.physmem.num_reads::cpu3.inst               123                       # Number of read requests responded to by this memory
system.physmem.num_reads::cpu3.data             36751                       # Number of read requests responded to by this memory
system.physmem.num_reads::cpu4.inst                83                       # Number of read requests responded to by this memory
system.physmem.num_reads::cpu4.data             34462                       # Number of read requests responded to by this memory
system.physmem.num_reads::total                139837                       # Number of read requests responded to by this memory
system.physmem.num_writes::writebacks            2761                       # Number of write requests responded to by this memory
system.physmem.num_writes::total                 2761                       # Number of write requests responded to by this memory
system.physmem.bw_read::cpu0.inst              506905                       # Total read bandwidth from this memory (bytes/s)
system.physmem.bw_read::cpu0.data              428550                       # Total read bandwidth from this memory (bytes/s)
system.physmem.bw_read::cpu1.inst              129525                       # Total read bandwidth from this memory (bytes/s)
system.physmem.bw_read::cpu1.data            54254802                       # Total read bandwidth from this memory (bytes/s)
system.physmem.bw_read::cpu2.inst               79953                       # Total read bandwidth from this memory (bytes/s)
system.physmem.bw_read::cpu2.data            54005347                       # Total read bandwidth from this memory (bytes/s)
system.physmem.bw_read::cpu3.inst              196685                       # Total read bandwidth from this memory (bytes/s)
system.physmem.bw_read::cpu3.data            58767374                       # Total read bandwidth from this memory (bytes/s)
system.physmem.bw_read::cpu4.inst              132723                       # Total read bandwidth from this memory (bytes/s)
system.physmem.bw_read::cpu4.data            55107106                       # Total read bandwidth from this memory (bytes/s)
system.physmem.bw_read::total               223608970                       # Total read bandwidth from this memory (bytes/s)
system.physmem.bw_inst_read::cpu0.inst         506905                       # Instruction read bandwidth from this memory (bytes/s)
system.physmem.bw_inst_read::cpu1.inst         129525                       # Instruction read bandwidth from this memory (bytes/s)
system.physmem.bw_inst_read::cpu2.inst          79953                       # Instruction read bandwidth from this memory (bytes/s)
system.physmem.bw_inst_read::cpu3.inst         196685                       # Instruction read bandwidth from this memory (bytes/s)
system.physmem.bw_inst_read::cpu4.inst         132723                       # Instruction read bandwidth from this memory (bytes/s)
system.physmem.bw_inst_read::total            1045791                       # Instruction read bandwidth from this memory (bytes/s)
system.physmem.bw_write::writebacks           4415029                       # Write bandwidth from this memory (bytes/s)
system.physmem.bw_write::total                4415029                       # Write bandwidth from this memory (bytes/s)
system.physmem.bw_total::writebacks           4415029                       # Total bandwidth to/from this memory (bytes/s)
system.physmem.bw_total::cpu0.inst             506905                       # Total bandwidth to/from this memory (bytes/s)
system.physmem.bw_total::cpu0.data             428550                       # Total bandwidth to/from this memory (bytes/s)
system.physmem.bw_total::cpu1.inst             129525                       # Total bandwidth to/from this memory (bytes/s)
system.physmem.bw_total::cpu1.data           54254802                       # Total bandwidth to/from this memory (bytes/s)
system.physmem.bw_total::cpu2.inst              79953                       # Total bandwidth to/from this memory (bytes/s)
system.physmem.bw_total::cpu2.data           54005347                       # Total bandwidth to/from this memory (bytes/s)
system.physmem.bw_total::cpu3.inst             196685                       # Total bandwidth to/from this memory (bytes/s)
system.physmem.bw_total::cpu3.data           58767374                       # Total bandwidth to/from this memory (bytes/s)
system.physmem.bw_total::cpu4.inst             132723                       # Total bandwidth to/from this memory (bytes/s)
system.physmem.bw_total::cpu4.data           55107106                       # Total bandwidth to/from this memory (bytes/s)
system.physmem.bw_total::total              228023999                       # Total bandwidth to/from this memory (bytes/s)
system.cpu0.branchPred.lookups               20001299                       # Number of BP lookups
system.cpu0.branchPred.condPredicted         20000518                       # Number of conditional branches predicted
system.cpu0.branchPred.condIncorrect              519                       # Number of conditional branches incorrect
system.cpu0.branchPred.BTBLookups            19999847                       # Number of BTB lookups
system.cpu0.branchPred.BTBHits               19999506                       # Number of BTB hits
system.cpu0.branchPred.BTBCorrect                   0                       # Number of correct BTB predictions (this stat may not work properly.
system.cpu0.branchPred.BTBHitPct            99.998295                       # BTB Hit Percentage
system.cpu0.branchPred.usedRAS                    253                       # Number of times the RAS was used to get a target.
system.cpu0.branchPred.RASInCorrect                51                       # Number of incorrect RAS predictions.
system.cpu0.dstage2_mmu.stage2_tlb.walker.walks            0                       # Table walker walks requested
system.cpu0.dstage2_mmu.stage2_tlb.walker.walkRequestOrigin_Requested::Data            0                       # Table walker requests started/completed, data/inst
system.cpu0.dstage2_mmu.stage2_tlb.walker.walkRequestOrigin_Requested::Inst            0                       # Table walker requests started/completed, data/inst
system.cpu0.dstage2_mmu.stage2_tlb.walker.walkRequestOrigin_Requested::total            0                       # Table walker requests started/completed, data/inst
system.cpu0.dstage2_mmu.stage2_tlb.walker.walkRequestOrigin_Completed::Data            0                       # Table walker requests started/completed, data/inst
system.cpu0.dstage2_mmu.stage2_tlb.walker.walkRequestOrigin_Completed::Inst            0                       # Table walker requests started/completed, data/inst
system.cpu0.dstage2_mmu.stage2_tlb.walker.walkRequestOrigin_Completed::total            0                       # Table walker requests started/completed, data/inst
system.cpu0.dstage2_mmu.stage2_tlb.walker.walkRequestOrigin::total            0                       # Table walker requests started/completed, data/inst
system.cpu0.dstage2_mmu.stage2_tlb.inst_hits            0                       # ITB inst hits
system.cpu0.dstage2_mmu.stage2_tlb.inst_misses            0                       # ITB inst misses
system.cpu0.dstage2_mmu.stage2_tlb.read_hits            0                       # DTB read hits
system.cpu0.dstage2_mmu.stage2_tlb.read_misses            0                       # DTB read misses
system.cpu0.dstage2_mmu.stage2_tlb.write_hits            0                       # DTB write hits
system.cpu0.dstage2_mmu.stage2_tlb.write_misses            0                       # DTB write misses
system.cpu0.dstage2_mmu.stage2_tlb.flush_tlb            0                       # Number of times complete TLB was flushed
system.cpu0.dstage2_mmu.stage2_tlb.flush_tlb_mva            0                       # Number of times TLB was flushed by MVA
system.cpu0.dstage2_mmu.stage2_tlb.flush_tlb_mva_asid            0                       # Number of times TLB was flushed by MVA & ASID
system.cpu0.dstage2_mmu.stage2_tlb.flush_tlb_asid            0                       # Number of times TLB was flushed by ASID
system.cpu0.dstage2_mmu.stage2_tlb.flush_entries            0                       # Number of entries that have been flushed from TLB
system.cpu0.dstage2_mmu.stage2_tlb.align_faults            0                       # Number of TLB faults due to alignment restrictions
system.cpu0.dstage2_mmu.stage2_tlb.prefetch_faults            0                       # Number of TLB faults due to prefetch
system.cpu0.dstage2_mmu.stage2_tlb.domain_faults            0                       # Number of TLB faults due to domain restrictions
system.cpu0.dstage2_mmu.stage2_tlb.perms_faults            0                       # Number of TLB faults due to permissions restrictions
system.cpu0.dstage2_mmu.stage2_tlb.read_accesses            0                       # DTB read accesses
system.cpu0.dstage2_mmu.stage2_tlb.write_accesses            0                       # DTB write accesses
system.cpu0.dstage2_mmu.stage2_tlb.inst_accesses            0                       # ITB inst accesses
system.cpu0.dstage2_mmu.stage2_tlb.hits             0                       # DTB hits
system.cpu0.dstage2_mmu.stage2_tlb.misses            0                       # DTB misses
system.cpu0.dstage2_mmu.stage2_tlb.accesses            0                       # DTB accesses
system.cpu0.dtb.walker.walks                        0                       # Table walker walks requested
system.cpu0.dtb.walker.walkRequestOrigin_Requested::Data            0                       # Table walker requests started/completed, data/inst
system.cpu0.dtb.walker.walkRequestOrigin_Requested::Inst            0                       # Table walker requests started/completed, data/inst
system.cpu0.dtb.walker.walkRequestOrigin_Requested::total            0                       # Table walker requests started/completed, data/inst
system.cpu0.dtb.walker.walkRequestOrigin_Completed::Data            0                       # Table walker requests started/completed, data/inst
system.cpu0.dtb.walker.walkRequestOrigin_Completed::Inst            0                       # Table walker requests started/completed, data/inst
system.cpu0.dtb.walker.walkRequestOrigin_Completed::total            0                       # Table walker requests started/completed, data/inst
system.cpu0.dtb.walker.walkRequestOrigin::total            0                       # Table walker requests started/completed, data/inst
system.cpu0.dtb.inst_hits                           0                       # ITB inst hits
system.cpu0.dtb.inst_misses                         0                       # ITB inst misses
system.cpu0.dtb.read_hits                           0                       # DTB read hits
system.cpu0.dtb.read_misses                         0                       # DTB read misses
system.cpu0.dtb.write_hits                          0                       # DTB write hits
system.cpu0.dtb.write_misses                        0                       # DTB write misses
system.cpu0.dtb.flush_tlb                           0                       # Number of times complete TLB was flushed
system.cpu0.dtb.flush_tlb_mva                       0                       # Number of times TLB was flushed by MVA
system.cpu0.dtb.flush_tlb_mva_asid                  0                       # Number of times TLB was flushed by MVA & ASID
system.cpu0.dtb.flush_tlb_asid                      0                       # Number of times TLB was flushed by ASID
system.cpu0.dtb.flush_entries                       0                       # Number of entries that have been flushed from TLB
system.cpu0.dtb.align_faults                        0                       # Number of TLB faults due to alignment restrictions
system.cpu0.dtb.prefetch_faults                     0                       # Number of TLB faults due to prefetch
system.cpu0.dtb.domain_faults                       0                       # Number of TLB faults due to domain restrictions
system.cpu0.dtb.perms_faults                        0                       # Number of TLB faults due to permissions restrictions
system.cpu0.dtb.read_accesses                       0                       # DTB read accesses
system.cpu0.dtb.write_accesses                      0                       # DTB write accesses
system.cpu0.dtb.inst_accesses                       0                       # ITB inst accesses
system.cpu0.dtb.hits                                0                       # DTB hits
system.cpu0.dtb.misses                              0                       # DTB misses
system.cpu0.dtb.accesses                            0                       # DTB accesses
system.cpu0.istage2_mmu.stage2_tlb.walker.walks            0                       # Table walker walks requested
system.cpu0.istage2_mmu.stage2_tlb.walker.walkRequestOrigin_Requested::Data            0                       # Table walker requests started/completed, data/inst
system.cpu0.istage2_mmu.stage2_tlb.walker.walkRequestOrigin_Requested::Inst            0                       # Table walker requests started/completed, data/inst
system.cpu0.istage2_mmu.stage2_tlb.walker.walkRequestOrigin_Requested::total            0                       # Table walker requests started/completed, data/inst
system.cpu0.istage2_mmu.stage2_tlb.walker.walkRequestOrigin_Completed::Data            0                       # Table walker requests started/completed, data/inst
system.cpu0.istage2_mmu.stage2_tlb.walker.walkRequestOrigin_Completed::Inst            0                       # Table walker requests started/completed, data/inst
system.cpu0.istage2_mmu.stage2_tlb.walker.walkRequestOrigin_Completed::total            0                       # Table walker requests started/completed, data/inst
system.cpu0.istage2_mmu.stage2_tlb.walker.walkRequestOrigin::total            0                       # Table walker requests started/completed, data/inst
system.cpu0.istage2_mmu.stage2_tlb.inst_hits            0                       # ITB inst hits
system.cpu0.istage2_mmu.stage2_tlb.inst_misses            0                       # ITB inst misses
system.cpu0.istage2_mmu.stage2_tlb.read_hits            0                       # DTB read hits
system.cpu0.istage2_mmu.stage2_tlb.read_misses            0                       # DTB read misses
system.cpu0.istage2_mmu.stage2_tlb.write_hits            0                       # DTB write hits
system.cpu0.istage2_mmu.stage2_tlb.write_misses            0                       # DTB write misses
system.cpu0.istage2_mmu.stage2_tlb.flush_tlb            0                       # Number of times complete TLB was flushed
system.cpu0.istage2_mmu.stage2_tlb.flush_tlb_mva            0                       # Number of times TLB was flushed by MVA
system.cpu0.istage2_mmu.stage2_tlb.flush_tlb_mva_asid            0                       # Number of times TLB was flushed by MVA & ASID
system.cpu0.istage2_mmu.stage2_tlb.flush_tlb_asid            0                       # Number of times TLB was flushed by ASID
system.cpu0.istage2_mmu.stage2_tlb.flush_entries            0                       # Number of entries that have been flushed from TLB
system.cpu0.istage2_mmu.stage2_tlb.align_faults            0                       # Number of TLB faults due to alignment restrictions
system.cpu0.istage2_mmu.stage2_tlb.prefetch_faults            0                       # Number of TLB faults due to prefetch
system.cpu0.istage2_mmu.stage2_tlb.domain_faults            0                       # Number of TLB faults due to domain restrictions
system.cpu0.istage2_mmu.stage2_tlb.perms_faults            0                       # Number of TLB faults due to permissions restrictions
system.cpu0.istage2_mmu.stage2_tlb.read_accesses            0                       # DTB read accesses
system.cpu0.istage2_mmu.stage2_tlb.write_accesses            0                       # DTB write accesses
system.cpu0.istage2_mmu.stage2_tlb.inst_accesses            0                       # ITB inst accesses
system.cpu0.istage2_mmu.stage2_tlb.hits             0                       # DTB hits
system.cpu0.istage2_mmu.stage2_tlb.misses            0                       # DTB misses
system.cpu0.istage2_mmu.stage2_tlb.accesses            0                       # DTB accesses
system.cpu0.itb.walker.walks                        0                       # Table walker walks requested
system.cpu0.itb.walker.walkRequestOrigin_Requested::Data            0                       # Table walker requests started/completed, data/inst
system.cpu0.itb.walker.walkRequestOrigin_Requested::Inst            0                       # Table walker requests started/completed, data/inst
system.cpu0.itb.walker.walkRequestOrigin_Requested::total            0                       # Table walker requests started/completed, data/inst
system.cpu0.itb.walker.walkRequestOrigin_Completed::Data            0                       # Table walker requests started/completed, data/inst
system.cpu0.itb.walker.walkRequestOrigin_Completed::Inst            0                       # Table walker requests started/completed, data/inst
system.cpu0.itb.walker.walkRequestOrigin_Completed::total            0                       # Table walker requests started/completed, data/inst
system.cpu0.itb.walker.walkRequestOrigin::total            0                       # Table walker requests started/completed, data/inst
system.cpu0.itb.inst_hits                           0                       # ITB inst hits
system.cpu0.itb.inst_misses                         0                       # ITB inst misses
system.cpu0.itb.read_hits                           0                       # DTB read hits
system.cpu0.itb.read_misses                         0                       # DTB read misses
system.cpu0.itb.write_hits                          0                       # DTB write hits
system.cpu0.itb.write_misses                        0                       # DTB write misses
system.cpu0.itb.flush_tlb                           0                       # Number of times complete TLB was flushed
system.cpu0.itb.flush_tlb_mva                       0                       # Number of times TLB was flushed by MVA
system.cpu0.itb.flush_tlb_mva_asid                  0                       # Number of times TLB was flushed by MVA & ASID
system.cpu0.itb.flush_tlb_asid                      0                       # Number of times TLB was flushed by ASID
system.cpu0.itb.flush_entries                       0                       # Number of entries that have been flushed from TLB
system.cpu0.itb.align_faults                        0                       # Number of TLB faults due to alignment restrictions
system.cpu0.itb.prefetch_faults                     0                       # Number of TLB faults due to prefetch
system.cpu0.itb.domain_faults                       0                       # Number of TLB faults due to domain restrictions
system.cpu0.itb.perms_faults                        0                       # Number of TLB faults due to permissions restrictions
system.cpu0.itb.read_accesses                       0                       # DTB read accesses
system.cpu0.itb.write_accesses                      0                       # DTB write accesses
system.cpu0.itb.inst_accesses                       0                       # ITB inst accesses
system.cpu0.itb.hits                                0                       # DTB hits
system.cpu0.itb.misses                              0                       # DTB misses
system.cpu0.itb.accesses                            0                       # DTB accesses
system.cpu0.workload.num_syscalls               47926                       # Number of system calls
system.cpu0.numCycles                        40023297                       # number of cpu cycles simulated
system.cpu0.numWorkItemsStarted                     0                       # number of work items this cpu started
system.cpu0.numWorkItemsCompleted                   0                       # number of work items this cpu completed
system.cpu0.fetch.icacheStallCycles              7394                       # Number of cycles fetch is stalled on an Icache miss
system.cpu0.fetch.Insts                     100007765                       # Number of instructions fetch has processed
system.cpu0.fetch.Branches                   20001299                       # Number of branches that fetch encountered
system.cpu0.fetch.predictedBranches          19999759                       # Number of branches that fetch has predicted taken
system.cpu0.fetch.Cycles                     40007652                       # Number of cycles fetch has run and was not squashing or blocked
system.cpu0.fetch.SquashCycles                   1252                       # Number of cycles fetch has spent squashing
system.cpu0.fetch.PendingTrapStallCycles          149                       # Number of stall cycles due to pending traps
system.cpu0.fetch.CacheLines                     1767                       # Number of cache lines fetched
system.cpu0.fetch.IcacheSquashes                  217                       # Number of outstanding Icache misses that were squashed
system.cpu0.fetch.rateDist::samples          40015821                       # Number of instructions fetched each cycle (Total)
system.cpu0.fetch.rateDist::mean             2.499310                       # Number of instructions fetched each cycle (Total)
system.cpu0.fetch.rateDist::stdev            0.501776                       # Number of instructions fetched each cycle (Total)
system.cpu0.fetch.rateDist::underflows              0      0.00%      0.00% # Number of instructions fetched each cycle (Total)
system.cpu0.fetch.rateDist::0                   11672      0.03%      0.03% # Number of instructions fetched each cycle (Total)
system.cpu0.fetch.rateDist::1                     592      0.00%      0.03% # Number of instructions fetched each cycle (Total)
system.cpu0.fetch.rateDist::2                19999322     49.98%     50.01% # Number of instructions fetched each cycle (Total)
system.cpu0.fetch.rateDist::3                20004235     49.99%    100.00% # Number of instructions fetched each cycle (Total)
system.cpu0.fetch.rateDist::overflows               0      0.00%    100.00% # Number of instructions fetched each cycle (Total)
system.cpu0.fetch.rateDist::min_value               0                       # Number of instructions fetched each cycle (Total)
system.cpu0.fetch.rateDist::max_value               3                       # Number of instructions fetched each cycle (Total)
system.cpu0.fetch.rateDist::total            40015821                       # Number of instructions fetched each cycle (Total)
system.cpu0.fetch.branchRate                 0.499741                       # Number of branch fetches per cycle
system.cpu0.fetch.rate                       2.498739                       # Number of inst fetches per cycle
system.cpu0.decode.IdleCycles                    7013                       # Number of cycles decode is idle
system.cpu0.decode.BlockedCycles                 5234                       # Number of cycles decode is blocked
system.cpu0.decode.RunCycles                 40002404                       # Number of cycles decode is running
system.cpu0.decode.UnblockCycles                  719                       # Number of cycles decode is unblocking
system.cpu0.decode.SquashCycles                   451                       # Number of cycles decode is squashing
system.cpu0.decode.BranchResolved                 327                       # Number of times decode resolved a branch
system.cpu0.decode.BranchMispred                  182                       # Number of times decode detected a branch misprediction
system.cpu0.decode.DecodedInsts             100009570                       # Number of instructions handled by decode
system.cpu0.decode.SquashedInsts                  437                       # Number of squashed instructions handled by decode
system.cpu0.rename.SquashCycles                   451                       # Number of cycles rename is squashing
system.cpu0.rename.IdleCycles                    7602                       # Number of cycles rename is idle
system.cpu0.rename.BlockCycles                    528                       # Number of cycles rename is blocking
system.cpu0.rename.serializeStallCycles          1991                       # count of cycles rename stalled for serializing inst
system.cpu0.rename.RunCycles                 40002429                       # Number of cycles rename is running
system.cpu0.rename.UnblockCycles                 2820                       # Number of cycles rename is unblocking
system.cpu0.rename.RenamedInsts             100008780                       # Number of instructions processed by rename
system.cpu0.rename.IQFullEvents                    16                       # Number of times rename has blocked due to IQ full
system.cpu0.rename.SQFullEvents                  2671                       # Number of times rename has blocked due to SQ full
system.cpu0.rename.RenamedOperands          100010234                       # Number of destination operands rename has renamed
system.cpu0.rename.RenameLookups            460045199                       # Number of register rename lookups that rename has made
system.cpu0.rename.int_rename_lookups       100014003                       # Number of integer rename lookups
system.cpu0.rename.fp_rename_lookups               16                       # Number of floating rename lookups
system.cpu0.rename.CommittedMaps            100004254                       # Number of HB maps that are committed
system.cpu0.rename.UndoneMaps                    5953                       # Number of HB maps that are undone due to squashing
system.cpu0.rename.serializingInsts                47                       # count of serializing insts renamed
system.cpu0.rename.tempSerializingInsts            46                       # count of temporary serializing insts renamed
system.cpu0.rename.skidInsts                     1186                       # count of insts added to the skid buffer
system.cpu0.memDep0.insertedLoads            39998940                       # Number of loads inserted to the mem dependence unit.
system.cpu0.memDep0.insertedStores           20002033                       # Number of stores inserted to the mem dependence unit.
system.cpu0.memDep0.conflictingLoads         19998158                       # Number of conflicting loads.
system.cpu0.memDep0.conflictingStores        19998132                       # Number of conflicting stores.
system.cpu0.iq.iqInstsAdded                 100007261                       # Number of instructions added to the IQ (excludes non-spec)
system.cpu0.iq.iqNonSpecInstsAdded                 67                       # Number of non-speculative instructions added to the IQ
system.cpu0.iq.iqInstsIssued                100005568                       # Number of instructions issued
system.cpu0.iq.iqSquashedInstsIssued              285                       # Number of squashed instructions issued
system.cpu0.iq.iqSquashedInstsExamined           4019                       # Number of squashed instructions iterated over during squash; mainly for profiling
system.cpu0.iq.iqSquashedOperandsExamined        10338                       # Number of squashed operands that are examined and possibly removed from graph
system.cpu0.iq.iqSquashedNonSpecRemoved             3                       # Number of squashed non-spec instructions that were removed
system.cpu0.iq.issued_per_cycle::samples     40015821                       # Number of insts issued each cycle
system.cpu0.iq.issued_per_cycle::mean        2.499151                       # Number of insts issued each cycle
system.cpu0.iq.issued_per_cycle::stdev       0.706204                       # Number of insts issued each cycle
system.cpu0.iq.issued_per_cycle::underflows            0      0.00%      0.00% # Number of insts issued each cycle
system.cpu0.iq.issued_per_cycle::0              12208      0.03%      0.03% # Number of insts issued each cycle
system.cpu0.iq.issued_per_cycle::1            4939849     12.34%     12.38% # Number of insts issued each cycle
system.cpu0.iq.issued_per_cycle::2           10125573     25.30%     37.68% # Number of insts issued each cycle
system.cpu0.iq.issued_per_cycle::3           24938191     62.32%    100.00% # Number of insts issued each cycle
system.cpu0.iq.issued_per_cycle::overflows            0      0.00%    100.00% # Number of insts issued each cycle
system.cpu0.iq.issued_per_cycle::min_value            0                       # Number of insts issued each cycle
system.cpu0.iq.issued_per_cycle::max_value            3                       # Number of insts issued each cycle
system.cpu0.iq.issued_per_cycle::total       40015821                       # Number of insts issued each cycle
system.cpu0.iq.fu_full::No_OpClass                  0                       # attempts to use FU when none available
system.cpu0.iq.fu_full::IntAlu                      0                       # attempts to use FU when none available
system.cpu0.iq.fu_full::IntMult                     0                       # attempts to use FU when none available
system.cpu0.iq.fu_full::IntDiv                      0                       # attempts to use FU when none available
system.cpu0.iq.fu_full::FloatAdd                    0                       # attempts to use FU when none available
system.cpu0.iq.fu_full::FloatCmp                    0                       # attempts to use FU when none available
system.cpu0.iq.fu_full::FloatCvt                    0                       # attempts to use FU when none available
system.cpu0.iq.fu_full::FloatMult                   0                       # attempts to use FU when none available
system.cpu0.iq.fu_full::FloatDiv                    0                       # attempts to use FU when none available
system.cpu0.iq.fu_full::FloatSqrt                   0                       # attempts to use FU when none available
system.cpu0.iq.fu_full::SimdAdd                     0                       # attempts to use FU when none available
system.cpu0.iq.fu_full::SimdAddAcc                  0                       # attempts to use FU when none available
system.cpu0.iq.fu_full::SimdAlu                     0                       # attempts to use FU when none available
system.cpu0.iq.fu_full::SimdCmp                     0                       # attempts to use FU when none available
system.cpu0.iq.fu_full::SimdCvt                     0                       # attempts to use FU when none available
system.cpu0.iq.fu_full::SimdMisc                    0                       # attempts to use FU when none available
system.cpu0.iq.fu_full::SimdMult                    0                       # attempts to use FU when none available
system.cpu0.iq.fu_full::SimdMultAcc                 0                       # attempts to use FU when none available
system.cpu0.iq.fu_full::SimdShift                   0                       # attempts to use FU when none available
system.cpu0.iq.fu_full::SimdShiftAcc                0                       # attempts to use FU when none available
system.cpu0.iq.fu_full::SimdSqrt                    0                       # attempts to use FU when none available
system.cpu0.iq.fu_full::SimdFloatAdd                0                       # attempts to use FU when none available
system.cpu0.iq.fu_full::SimdFloatAlu                0                       # attempts to use FU when none available
system.cpu0.iq.fu_full::SimdFloatCmp                0                       # attempts to use FU when none available
system.cpu0.iq.fu_full::SimdFloatCvt                0                       # attempts to use FU when none available
system.cpu0.iq.fu_full::SimdFloatDiv                0                       # attempts to use FU when none available
system.cpu0.iq.fu_full::SimdFloatMisc               0                       # attempts to use FU when none available
system.cpu0.iq.fu_full::SimdFloatMult               0                       # attempts to use FU when none available
system.cpu0.iq.fu_full::SimdFloatMultAcc            0                       # attempts to use FU when none available
system.cpu0.iq.fu_full::SimdFloatSqrt               0                       # attempts to use FU when none available
system.cpu0.iq.fu_full::MemRead                     0                       # attempts to use FU when none available
system.cpu0.iq.fu_full::MemWrite                    0                       # attempts to use FU when none available
system.cpu0.iq.fu_full::IprAccess                   0                       # attempts to use FU when none available
system.cpu0.iq.fu_full::InstPrefetch                0                       # attempts to use FU when none available
system.cpu0.iq.FU_type_0::No_OpClass                0      0.00%      0.00% # Type of FU issued
system.cpu0.iq.FU_type_0::IntAlu             40005128     40.00%     40.00% # Type of FU issued
system.cpu0.iq.FU_type_0::IntMult                   6      0.00%     40.00% # Type of FU issued
system.cpu0.iq.FU_type_0::IntDiv                    0      0.00%     40.00% # Type of FU issued
system.cpu0.iq.FU_type_0::FloatAdd                  0      0.00%     40.00% # Type of FU issued
system.cpu0.iq.FU_type_0::FloatCmp                  0      0.00%     40.00% # Type of FU issued
system.cpu0.iq.FU_type_0::FloatCvt                  0      0.00%     40.00% # Type of FU issued
system.cpu0.iq.FU_type_0::FloatMult                 0      0.00%     40.00% # Type of FU issued
system.cpu0.iq.FU_type_0::FloatDiv                  0      0.00%     40.00% # Type of FU issued
system.cpu0.iq.FU_type_0::FloatSqrt                 0      0.00%     40.00% # Type of FU issued
system.cpu0.iq.FU_type_0::SimdAdd                   0      0.00%     40.00% # Type of FU issued
system.cpu0.iq.FU_type_0::SimdAddAcc                0      0.00%     40.00% # Type of FU issued
system.cpu0.iq.FU_type_0::SimdAlu                   0      0.00%     40.00% # Type of FU issued
system.cpu0.iq.FU_type_0::SimdCmp                   0      0.00%     40.00% # Type of FU issued
system.cpu0.iq.FU_type_0::SimdCvt                   0      0.00%     40.00% # Type of FU issued
system.cpu0.iq.FU_type_0::SimdMisc                  0      0.00%     40.00% # Type of FU issued
system.cpu0.iq.FU_type_0::SimdMult                  0      0.00%     40.00% # Type of FU issued
system.cpu0.iq.FU_type_0::SimdMultAcc               0      0.00%     40.00% # Type of FU issued
system.cpu0.iq.FU_type_0::SimdShift                 0      0.00%     40.00% # Type of FU issued
system.cpu0.iq.FU_type_0::SimdShiftAcc              0      0.00%     40.00% # Type of FU issued
system.cpu0.iq.FU_type_0::SimdSqrt                  0      0.00%     40.00% # Type of FU issued
system.cpu0.iq.FU_type_0::SimdFloatAdd              0      0.00%     40.00% # Type of FU issued
system.cpu0.iq.FU_type_0::SimdFloatAlu              0      0.00%     40.00% # Type of FU issued
system.cpu0.iq.FU_type_0::SimdFloatCmp              0      0.00%     40.00% # Type of FU issued
system.cpu0.iq.FU_type_0::SimdFloatCvt              0      0.00%     40.00% # Type of FU issued
system.cpu0.iq.FU_type_0::SimdFloatDiv              0      0.00%     40.00% # Type of FU issued
system.cpu0.iq.FU_type_0::SimdFloatMisc             3      0.00%     40.00% # Type of FU issued
system.cpu0.iq.FU_type_0::SimdFloatMult             0      0.00%     40.00% # Type of FU issued
system.cpu0.iq.FU_type_0::SimdFloatMultAcc            0      0.00%     40.00% # Type of FU issued
system.cpu0.iq.FU_type_0::SimdFloatSqrt             0      0.00%     40.00% # Type of FU issued
system.cpu0.iq.FU_type_0::MemRead            39998607     40.00%     80.00% # Type of FU issued
system.cpu0.iq.FU_type_0::MemWrite           20001824     20.00%    100.00% # Type of FU issued
system.cpu0.iq.FU_type_0::IprAccess                 0      0.00%    100.00% # Type of FU issued
system.cpu0.iq.FU_type_0::InstPrefetch              0      0.00%    100.00% # Type of FU issued
system.cpu0.iq.FU_type_0::total             100005568                       # Type of FU issued
system.cpu0.iq.rate                          2.498684                       # Inst issue rate
system.cpu0.iq.fu_busy_cnt                          0                       # FU busy when requested
system.cpu0.iq.fu_busy_rate                         0                       # FU busy rate (busy events/executed inst)
system.cpu0.iq.int_inst_queue_reads         240027207                       # Number of integer instruction queue reads
system.cpu0.iq.int_inst_queue_writes        100011421                       # Number of integer instruction queue writes
system.cpu0.iq.int_inst_queue_wakeup_accesses    100004860                       # Number of integer instruction queue wakeup accesses
system.cpu0.iq.fp_inst_queue_reads                 32                       # Number of floating instruction queue reads
system.cpu0.iq.fp_inst_queue_writes                16                       # Number of floating instruction queue writes
system.cpu0.iq.fp_inst_queue_wakeup_accesses           16                       # Number of floating instruction queue wakeup accesses
system.cpu0.iq.int_alu_accesses             100005552                       # Number of integer alu accesses
system.cpu0.iq.fp_alu_accesses                     16                       # Number of floating point alu accesses
system.cpu0.iew.lsq.thread0.forwLoads        19998325                       # Number of loads that had data forwarded from stores
system.cpu0.iew.lsq.thread0.invAddrLoads            0                       # Number of loads ignored due to an invalid address
system.cpu0.iew.lsq.thread0.squashedLoads         1092                       # Number of loads squashed
system.cpu0.iew.lsq.thread0.ignoredResponses            4                       # Number of memory responses ignored because the instruction is squashed
system.cpu0.iew.lsq.thread0.memOrderViolation           90                       # Number of memory ordering violations
system.cpu0.iew.lsq.thread0.squashedStores          403                       # Number of stores squashed
system.cpu0.iew.lsq.thread0.invAddrSwpfs            0                       # Number of software prefetches ignored due to an invalid address
system.cpu0.iew.lsq.thread0.blockedLoads            0                       # Number of blocked loads due to partial load-store forwarding
system.cpu0.iew.lsq.thread0.rescheduledLoads            3                       # Number of loads that were rescheduled
system.cpu0.iew.lsq.thread0.cacheBlocked            0                       # Number of times an access to memory failed due to the cache being blocked
system.cpu0.iew.iewIdleCycles                       0                       # Number of cycles IEW is idle
system.cpu0.iew.iewSquashCycles                   451                       # Number of cycles IEW is squashing
system.cpu0.iew.iewBlockCycles                    394                       # Number of cycles IEW is blocking
system.cpu0.iew.iewUnblockCycles                  134                       # Number of cycles IEW is unblocking
system.cpu0.iew.iewDispatchedInsts          100007342                       # Number of instructions dispatched to IQ
system.cpu0.iew.iewDispSquashedInsts              260                       # Number of squashed instructions skipped by dispatch
system.cpu0.iew.iewDispLoadInsts             39998940                       # Number of dispatched load instructions
system.cpu0.iew.iewDispStoreInsts            20002033                       # Number of dispatched store instructions
system.cpu0.iew.iewDispNonSpecInsts                43                       # Number of dispatched non-speculative instructions
system.cpu0.iew.iewIQFullEvents                    11                       # Number of times the IQ has become full, causing a stall
system.cpu0.iew.iewLSQFullEvents                    0                       # Number of times the LSQ has become full, causing a stall
system.cpu0.iew.memOrderViolationEvents            90                       # Number of memory order violations
system.cpu0.iew.predictedTakenIncorrect            93                       # Number of branches that were predicted taken incorrectly
system.cpu0.iew.predictedNotTakenIncorrect          266                       # Number of branches that were predicted not taken incorrectly
system.cpu0.iew.branchMispredicts                 359                       # Number of branch mispredicts detected at execute
system.cpu0.iew.iewExecutedInsts            100005135                       # Number of executed instructions
system.cpu0.iew.iewExecLoadInsts             39998509                       # Number of load instructions executed
system.cpu0.iew.iewExecSquashedInsts              430                       # Number of squashed instructions skipped in execute
system.cpu0.iew.exec_swp                            0                       # number of swp insts executed
system.cpu0.iew.exec_nop                           14                       # number of nop insts executed
system.cpu0.iew.exec_refs                    60000215                       # number of memory reference insts executed
system.cpu0.iew.exec_branches                20000078                       # Number of branches executed
system.cpu0.iew.exec_forward_branches             747                       # Number of forward branches executed
system.cpu0.iew.exec_backward_branches       19999048                       # Number of backward branches executed
system.cpu0.iew.exec_taken_forward_branches          267                       # Number of forward branches executed that is taken
system.cpu0.iew.exec_nottaken_forward_branches          480                       # Number of forward branches executed that is not taken
system.cpu0.iew.exec_taken_backward_branches     19998852                       # Number of backward branches executed that is taken
system.cpu0.iew.exec_nottaken_backward_branches          196                       # Number of backward branches executed that is not taken
system.cpu0.iew.exec_stores                  20001706                       # Number of stores executed
system.cpu0.iew.exec_rate                    2.498673                       # Inst execution rate
system.cpu0.iew.wb_sent                     100004941                       # cumulative count of insts sent to commit
system.cpu0.iew.wb_count                    100004876                       # cumulative count of insts written-back
system.cpu0.iew.wb_producers                 60000813                       # num instructions producing a value
system.cpu0.iew.wb_consumers                 60010497                       # num instructions consuming a value
system.cpu0.iew.wb_penalized                        0                       # number of instrctions required to write to 'other' IQ
system.cpu0.iew.wb_rate                      2.498667                       # insts written-back per cycle
system.cpu0.iew.wb_fanout                    0.999839                       # average fanout of values written-back
system.cpu0.iew.wb_penalized_rate                   0                       # fraction of instructions written-back that wrote to 'other' IQ
system.cpu0.commit.commitSquashedInsts           4033                       # The number of squashed insts skipped by commit
system.cpu0.commit.commitNonSpecStalls             64                       # The number of times commit has been forced to stall to communicate backwards
system.cpu0.commit.branchMispredicts              344                       # The number of times a branch was mispredicted
system.cpu0.commit.committed_per_cycle::samples     40015086                       # Number of insts commited each cycle
system.cpu0.commit.committed_per_cycle::mean     2.499140                       # Number of insts commited each cycle
system.cpu0.commit.committed_per_cycle::stdev     1.580518                       # Number of insts commited each cycle
system.cpu0.commit.committed_per_cycle::underflows            0      0.00%      0.00% # Number of insts commited each cycle
system.cpu0.commit.committed_per_cycle::0        13021      0.03%      0.03% # Number of insts commited each cycle
system.cpu0.commit.committed_per_cycle::1     20000570     49.98%     50.02% # Number of insts commited each cycle
system.cpu0.commit.committed_per_cycle::2         1146      0.00%     50.02% # Number of insts commited each cycle
system.cpu0.commit.committed_per_cycle::3      4938845     12.34%     62.36% # Number of insts commited each cycle
system.cpu0.commit.committed_per_cycle::4     10124142     25.30%     87.66% # Number of insts commited each cycle
system.cpu0.commit.committed_per_cycle::5      4937107     12.34%    100.00% # Number of insts commited each cycle
system.cpu0.commit.committed_per_cycle::6           71      0.00%    100.00% # Number of insts commited each cycle
system.cpu0.commit.committed_per_cycle::7          109      0.00%    100.00% # Number of insts commited each cycle
system.cpu0.commit.committed_per_cycle::8           75      0.00%    100.00% # Number of insts commited each cycle
system.cpu0.commit.committed_per_cycle::overflows            0      0.00%    100.00% # Number of insts commited each cycle
system.cpu0.commit.committed_per_cycle::min_value            0                       # Number of insts commited each cycle
system.cpu0.commit.committed_per_cycle::max_value            8                       # Number of insts commited each cycle
system.cpu0.commit.committed_per_cycle::total     40015086                       # Number of insts commited each cycle
system.cpu0.commit.committedInsts           100000001                       # Number of instructions committed
system.cpu0.commit.committedOps             100003289                       # Number of ops (including micro ops) committed
system.cpu0.commit.swp_count                        0                       # Number of s/w prefetches committed
system.cpu0.commit.refs                      59999466                       # Number of memory references committed
system.cpu0.commit.loads                     39997840                       # Number of loads committed
system.cpu0.commit.membars                         24                       # Number of memory barriers committed
system.cpu0.commit.branches                  19999780                       # Number of branches committed
system.cpu0.commit.fp_insts                        16                       # Number of committed floating point instructions.
system.cpu0.commit.int_insts                 80003870                       # Number of committed integer instructions.
system.cpu0.commit.function_calls                 140                       # Number of function calls committed.
system.cpu0.commit.op_class_0::No_OpClass            0      0.00%      0.00% # Class of committed instruction
system.cpu0.commit.op_class_0::IntAlu        40003814     40.00%     40.00% # Class of committed instruction
system.cpu0.commit.op_class_0::IntMult              6      0.00%     40.00% # Class of committed instruction
system.cpu0.commit.op_class_0::IntDiv               0      0.00%     40.00% # Class of committed instruction
system.cpu0.commit.op_class_0::FloatAdd             0      0.00%     40.00% # Class of committed instruction
system.cpu0.commit.op_class_0::FloatCmp             0      0.00%     40.00% # Class of committed instruction
system.cpu0.commit.op_class_0::FloatCvt             0      0.00%     40.00% # Class of committed instruction
system.cpu0.commit.op_class_0::FloatMult            0      0.00%     40.00% # Class of committed instruction
system.cpu0.commit.op_class_0::FloatDiv             0      0.00%     40.00% # Class of committed instruction
system.cpu0.commit.op_class_0::FloatSqrt            0      0.00%     40.00% # Class of committed instruction
system.cpu0.commit.op_class_0::SimdAdd              0      0.00%     40.00% # Class of committed instruction
system.cpu0.commit.op_class_0::SimdAddAcc            0      0.00%     40.00% # Class of committed instruction
system.cpu0.commit.op_class_0::SimdAlu              0      0.00%     40.00% # Class of committed instruction
system.cpu0.commit.op_class_0::SimdCmp              0      0.00%     40.00% # Class of committed instruction
system.cpu0.commit.op_class_0::SimdCvt              0      0.00%     40.00% # Class of committed instruction
system.cpu0.commit.op_class_0::SimdMisc             0      0.00%     40.00% # Class of committed instruction
system.cpu0.commit.op_class_0::SimdMult             0      0.00%     40.00% # Class of committed instruction
system.cpu0.commit.op_class_0::SimdMultAcc            0      0.00%     40.00% # Class of committed instruction
system.cpu0.commit.op_class_0::SimdShift            0      0.00%     40.00% # Class of committed instruction
system.cpu0.commit.op_class_0::SimdShiftAcc            0      0.00%     40.00% # Class of committed instruction
system.cpu0.commit.op_class_0::SimdSqrt             0      0.00%     40.00% # Class of committed instruction
system.cpu0.commit.op_class_0::SimdFloatAdd            0      0.00%     40.00% # Class of committed instruction
system.cpu0.commit.op_class_0::SimdFloatAlu            0      0.00%     40.00% # Class of committed instruction
system.cpu0.commit.op_class_0::SimdFloatCmp            0      0.00%     40.00% # Class of committed instruction
system.cpu0.commit.op_class_0::SimdFloatCvt            0      0.00%     40.00% # Class of committed instruction
system.cpu0.commit.op_class_0::SimdFloatDiv            0      0.00%     40.00% # Class of committed instruction
system.cpu0.commit.op_class_0::SimdFloatMisc            3      0.00%     40.00% # Class of committed instruction
system.cpu0.commit.op_class_0::SimdFloatMult            0      0.00%     40.00% # Class of committed instruction
system.cpu0.commit.op_class_0::SimdFloatMultAcc            0      0.00%     40.00% # Class of committed instruction
system.cpu0.commit.op_class_0::SimdFloatSqrt            0      0.00%     40.00% # Class of committed instruction
system.cpu0.commit.op_class_0::MemRead       39997840     40.00%     80.00% # Class of committed instruction
system.cpu0.commit.op_class_0::MemWrite      20001626     20.00%    100.00% # Class of committed instruction
system.cpu0.commit.op_class_0::IprAccess            0      0.00%    100.00% # Class of committed instruction
system.cpu0.commit.op_class_0::InstPrefetch            0      0.00%    100.00% # Class of committed instruction
system.cpu0.commit.op_class_0::total        100003289                       # Class of committed instruction
system.cpu0.commit.bw_lim_events                   75                       # number cycles where commit BW limit reached
system.cpu0.rob.rob_reads                   140022124                       # The number of ROB reads
system.cpu0.rob.rob_writes                  200015403                       # The number of ROB writes
system.cpu0.timesIdled                            223                       # Number of times that the entire CPU went into an idle state and unscheduled itself
system.cpu0.idleCycles                           7476                       # Total number of cycles that the CPU has spent unscheduled due to idling
system.cpu0.committedInsts                  100000001                       # Number of Instructions Simulated
system.cpu0.committedOps                    100003289                       # Number of Ops (including micro ops) Simulated
system.cpu0.cpi                              0.400233                       # CPI: Cycles Per Instruction
system.cpu0.cpi_total                        0.400233                       # CPI: Total CPI of All Threads
system.cpu0.ipc                              2.498545                       # IPC: Instructions Per Cycle
system.cpu0.ipc_total                        2.498545                       # IPC: Total IPC of All Threads
system.cpu0.int_regfile_reads               100007753                       # number of integer regfile reads
system.cpu0.int_regfile_writes               40004188                       # number of integer regfile writes
system.cpu0.fp_regfile_reads                      656                       # number of floating regfile reads
system.cpu0.cc_regfile_reads                420010146                       # number of cc regfile reads
system.cpu0.cc_regfile_writes                60001743                       # number of cc regfile writes
system.cpu0.misc_regfile_reads               61240677                       # number of misc regfile reads
system.cpu0.misc_regfile_writes                    48                       # number of misc regfile writes
system.cpu0.dcache.tags.replacements               30                       # number of replacements
system.cpu0.dcache.tags.tagsinuse          126.013108                       # Cycle average of tags in use
system.cpu0.dcache.tags.total_refs           39998791                       # Total number of references to valid blocks.
system.cpu0.dcache.tags.sampled_refs              154                       # Sample count of references to valid blocks.
system.cpu0.dcache.tags.avg_refs         259732.409091                       # Average number of references to valid blocks.
system.cpu0.dcache.tags.warmup_cycle                0                       # Cycle when the warmup percentage was hit.
system.cpu0.dcache.tags.occ_blocks::cpu0.data   126.013108                       # Average occupied blocks per requestor
system.cpu0.dcache.tags.occ_percent::cpu0.data     0.246119                       # Average percentage of cache occupancy
system.cpu0.dcache.tags.occ_percent::total     0.246119                       # Average percentage of cache occupancy
system.cpu0.dcache.tags.occ_task_id_blocks::1024          124                       # Occupied blocks per task id
system.cpu0.dcache.tags.age_task_id_blocks_1024::4          124                       # Occupied blocks per task id
system.cpu0.dcache.tags.occ_task_id_percent::1024     0.242188                       # Percentage of cache occupancy per task id
system.cpu0.dcache.tags.tag_accesses         80003604                       # Number of tag accesses
system.cpu0.dcache.tags.data_accesses        80003604                       # Number of data accesses
system.cpu0.dcache.ReadReq_hits::cpu0.data     19999884                       # number of ReadReq hits
system.cpu0.dcache.ReadReq_hits::total       19999884                       # number of ReadReq hits
system.cpu0.dcache.WriteReq_hits::cpu0.data     19999173                       # number of WriteReq hits
system.cpu0.dcache.WriteReq_hits::total      19999173                       # number of WriteReq hits
system.cpu0.dcache.LoadLockedReq_hits::cpu0.data           20                       # number of LoadLockedReq hits
system.cpu0.dcache.LoadLockedReq_hits::total           20                       # number of LoadLockedReq hits
system.cpu0.dcache.StoreCondReq_hits::cpu0.data           23                       # number of StoreCondReq hits
system.cpu0.dcache.StoreCondReq_hits::total           23                       # number of StoreCondReq hits
system.cpu0.dcache.demand_hits::cpu0.data     39999057                       # number of demand (read+write) hits
system.cpu0.dcache.demand_hits::total        39999057                       # number of demand (read+write) hits
system.cpu0.dcache.overall_hits::cpu0.data     39999057                       # number of overall hits
system.cpu0.dcache.overall_hits::total       39999057                       # number of overall hits
system.cpu0.dcache.ReadReq_misses::cpu0.data          166                       # number of ReadReq misses
system.cpu0.dcache.ReadReq_misses::total          166                       # number of ReadReq misses
system.cpu0.dcache.WriteReq_misses::cpu0.data         2385                       # number of WriteReq misses
system.cpu0.dcache.WriteReq_misses::total         2385                       # number of WriteReq misses
system.cpu0.dcache.LoadLockedReq_misses::cpu0.data            3                       # number of LoadLockedReq misses
system.cpu0.dcache.LoadLockedReq_misses::total            3                       # number of LoadLockedReq misses
system.cpu0.dcache.demand_misses::cpu0.data         2551                       # number of demand (read+write) misses
system.cpu0.dcache.demand_misses::total          2551                       # number of demand (read+write) misses
system.cpu0.dcache.overall_misses::cpu0.data         2551                       # number of overall misses
system.cpu0.dcache.overall_misses::total         2551                       # number of overall misses
system.cpu0.dcache.ReadReq_miss_latency::cpu0.data      7989990                       # number of ReadReq miss cycles
system.cpu0.dcache.ReadReq_miss_latency::total      7989990                       # number of ReadReq miss cycles
system.cpu0.dcache.WriteReq_miss_latency::cpu0.data    119877500                       # number of WriteReq miss cycles
system.cpu0.dcache.WriteReq_miss_latency::total    119877500                       # number of WriteReq miss cycles
system.cpu0.dcache.LoadLockedReq_miss_latency::cpu0.data       133500                       # number of LoadLockedReq miss cycles
system.cpu0.dcache.LoadLockedReq_miss_latency::total       133500                       # number of LoadLockedReq miss cycles
system.cpu0.dcache.demand_miss_latency::cpu0.data    127867490                       # number of demand (read+write) miss cycles
system.cpu0.dcache.demand_miss_latency::total    127867490                       # number of demand (read+write) miss cycles
system.cpu0.dcache.overall_miss_latency::cpu0.data    127867490                       # number of overall miss cycles
system.cpu0.dcache.overall_miss_latency::total    127867490                       # number of overall miss cycles
system.cpu0.dcache.ReadReq_accesses::cpu0.data     20000050                       # number of ReadReq accesses(hits+misses)
system.cpu0.dcache.ReadReq_accesses::total     20000050                       # number of ReadReq accesses(hits+misses)
system.cpu0.dcache.WriteReq_accesses::cpu0.data     20001558                       # number of WriteReq accesses(hits+misses)
system.cpu0.dcache.WriteReq_accesses::total     20001558                       # number of WriteReq accesses(hits+misses)
system.cpu0.dcache.LoadLockedReq_accesses::cpu0.data           23                       # number of LoadLockedReq accesses(hits+misses)
system.cpu0.dcache.LoadLockedReq_accesses::total           23                       # number of LoadLockedReq accesses(hits+misses)
system.cpu0.dcache.StoreCondReq_accesses::cpu0.data           23                       # number of StoreCondReq accesses(hits+misses)
system.cpu0.dcache.StoreCondReq_accesses::total           23                       # number of StoreCondReq accesses(hits+misses)
system.cpu0.dcache.demand_accesses::cpu0.data     40001608                       # number of demand (read+write) accesses
system.cpu0.dcache.demand_accesses::total     40001608                       # number of demand (read+write) accesses
system.cpu0.dcache.overall_accesses::cpu0.data     40001608                       # number of overall (read+write) accesses
system.cpu0.dcache.overall_accesses::total     40001608                       # number of overall (read+write) accesses
system.cpu0.dcache.ReadReq_miss_rate::cpu0.data     0.000008                       # miss rate for ReadReq accesses
system.cpu0.dcache.ReadReq_miss_rate::total     0.000008                       # miss rate for ReadReq accesses
system.cpu0.dcache.WriteReq_miss_rate::cpu0.data     0.000119                       # miss rate for WriteReq accesses
system.cpu0.dcache.WriteReq_miss_rate::total     0.000119                       # miss rate for WriteReq accesses
system.cpu0.dcache.LoadLockedReq_miss_rate::cpu0.data     0.130435                       # miss rate for LoadLockedReq accesses
system.cpu0.dcache.LoadLockedReq_miss_rate::total     0.130435                       # miss rate for LoadLockedReq accesses
system.cpu0.dcache.demand_miss_rate::cpu0.data     0.000064                       # miss rate for demand accesses
system.cpu0.dcache.demand_miss_rate::total     0.000064                       # miss rate for demand accesses
system.cpu0.dcache.overall_miss_rate::cpu0.data     0.000064                       # miss rate for overall accesses
system.cpu0.dcache.overall_miss_rate::total     0.000064                       # miss rate for overall accesses
system.cpu0.dcache.ReadReq_avg_miss_latency::cpu0.data 48132.469880                       # average ReadReq miss latency
system.cpu0.dcache.ReadReq_avg_miss_latency::total 48132.469880                       # average ReadReq miss latency
system.cpu0.dcache.WriteReq_avg_miss_latency::cpu0.data 50263.102725                       # average WriteReq miss latency
system.cpu0.dcache.WriteReq_avg_miss_latency::total 50263.102725                       # average WriteReq miss latency
system.cpu0.dcache.LoadLockedReq_avg_miss_latency::cpu0.data        44500                       # average LoadLockedReq miss latency
system.cpu0.dcache.LoadLockedReq_avg_miss_latency::total        44500                       # average LoadLockedReq miss latency
system.cpu0.dcache.demand_avg_miss_latency::cpu0.data 50124.457076                       # average overall miss latency
system.cpu0.dcache.demand_avg_miss_latency::total 50124.457076                       # average overall miss latency
system.cpu0.dcache.overall_avg_miss_latency::cpu0.data 50124.457076                       # average overall miss latency
system.cpu0.dcache.overall_avg_miss_latency::total 50124.457076                       # average overall miss latency
system.cpu0.dcache.blocked_cycles::no_mshrs            0                       # number of cycles access was blocked
system.cpu0.dcache.blocked_cycles::no_targets            0                       # number of cycles access was blocked
system.cpu0.dcache.blocked::no_mshrs                0                       # number of cycles access was blocked
system.cpu0.dcache.blocked::no_targets              0                       # number of cycles access was blocked
system.cpu0.dcache.avg_blocked_cycles::no_mshrs          nan                       # average number of cycles each access was blocked
system.cpu0.dcache.avg_blocked_cycles::no_targets          nan                       # average number of cycles each access was blocked
system.cpu0.dcache.fast_writes                      0                       # number of fast writes performed
system.cpu0.dcache.cache_copies                     0                       # number of cache copies performed
system.cpu0.dcache.writebacks::writebacks           14                       # number of writebacks
system.cpu0.dcache.writebacks::total               14                       # number of writebacks
system.cpu0.dcache.ReadReq_mshr_hits::cpu0.data           54                       # number of ReadReq MSHR hits
system.cpu0.dcache.ReadReq_mshr_hits::total           54                       # number of ReadReq MSHR hits
system.cpu0.dcache.WriteReq_mshr_hits::cpu0.data         2200                       # number of WriteReq MSHR hits
system.cpu0.dcache.WriteReq_mshr_hits::total         2200                       # number of WriteReq MSHR hits
system.cpu0.dcache.LoadLockedReq_mshr_hits::cpu0.data            3                       # number of LoadLockedReq MSHR hits
system.cpu0.dcache.LoadLockedReq_mshr_hits::total            3                       # number of LoadLockedReq MSHR hits
system.cpu0.dcache.demand_mshr_hits::cpu0.data         2254                       # number of demand (read+write) MSHR hits
system.cpu0.dcache.demand_mshr_hits::total         2254                       # number of demand (read+write) MSHR hits
system.cpu0.dcache.overall_mshr_hits::cpu0.data         2254                       # number of overall MSHR hits
system.cpu0.dcache.overall_mshr_hits::total         2254                       # number of overall MSHR hits
system.cpu0.dcache.ReadReq_mshr_misses::cpu0.data          112                       # number of ReadReq MSHR misses
system.cpu0.dcache.ReadReq_mshr_misses::total          112                       # number of ReadReq MSHR misses
system.cpu0.dcache.WriteReq_mshr_misses::cpu0.data          185                       # number of WriteReq MSHR misses
system.cpu0.dcache.WriteReq_mshr_misses::total          185                       # number of WriteReq MSHR misses
system.cpu0.dcache.demand_mshr_misses::cpu0.data          297                       # number of demand (read+write) MSHR misses
system.cpu0.dcache.demand_mshr_misses::total          297                       # number of demand (read+write) MSHR misses
system.cpu0.dcache.overall_mshr_misses::cpu0.data          297                       # number of overall MSHR misses
system.cpu0.dcache.overall_mshr_misses::total          297                       # number of overall MSHR misses
system.cpu0.dcache.ReadReq_mshr_miss_latency::cpu0.data      5315006                       # number of ReadReq MSHR miss cycles
system.cpu0.dcache.ReadReq_mshr_miss_latency::total      5315006                       # number of ReadReq MSHR miss cycles
system.cpu0.dcache.WriteReq_mshr_miss_latency::cpu0.data     10228000                       # number of WriteReq MSHR miss cycles
system.cpu0.dcache.WriteReq_mshr_miss_latency::total     10228000                       # number of WriteReq MSHR miss cycles
system.cpu0.dcache.demand_mshr_miss_latency::cpu0.data     15543006                       # number of demand (read+write) MSHR miss cycles
system.cpu0.dcache.demand_mshr_miss_latency::total     15543006                       # number of demand (read+write) MSHR miss cycles
system.cpu0.dcache.overall_mshr_miss_latency::cpu0.data     15543006                       # number of overall MSHR miss cycles
system.cpu0.dcache.overall_mshr_miss_latency::total     15543006                       # number of overall MSHR miss cycles
system.cpu0.dcache.ReadReq_mshr_miss_rate::cpu0.data     0.000006                       # mshr miss rate for ReadReq accesses
system.cpu0.dcache.ReadReq_mshr_miss_rate::total     0.000006                       # mshr miss rate for ReadReq accesses
system.cpu0.dcache.WriteReq_mshr_miss_rate::cpu0.data     0.000009                       # mshr miss rate for WriteReq accesses
system.cpu0.dcache.WriteReq_mshr_miss_rate::total     0.000009                       # mshr miss rate for WriteReq accesses
system.cpu0.dcache.demand_mshr_miss_rate::cpu0.data     0.000007                       # mshr miss rate for demand accesses
system.cpu0.dcache.demand_mshr_miss_rate::total     0.000007                       # mshr miss rate for demand accesses
system.cpu0.dcache.overall_mshr_miss_rate::cpu0.data     0.000007                       # mshr miss rate for overall accesses
system.cpu0.dcache.overall_mshr_miss_rate::total     0.000007                       # mshr miss rate for overall accesses
system.cpu0.dcache.ReadReq_avg_mshr_miss_latency::cpu0.data 47455.410714                       # average ReadReq mshr miss latency
system.cpu0.dcache.ReadReq_avg_mshr_miss_latency::total 47455.410714                       # average ReadReq mshr miss latency
system.cpu0.dcache.WriteReq_avg_mshr_miss_latency::cpu0.data 55286.486486                       # average WriteReq mshr miss latency
system.cpu0.dcache.WriteReq_avg_mshr_miss_latency::total 55286.486486                       # average WriteReq mshr miss latency
system.cpu0.dcache.demand_avg_mshr_miss_latency::cpu0.data 52333.353535                       # average overall mshr miss latency
system.cpu0.dcache.demand_avg_mshr_miss_latency::total 52333.353535                       # average overall mshr miss latency
system.cpu0.dcache.overall_avg_mshr_miss_latency::cpu0.data 52333.353535                       # average overall mshr miss latency
system.cpu0.dcache.overall_avg_mshr_miss_latency::total 52333.353535                       # average overall mshr miss latency
system.cpu0.dcache.no_allocate_misses               0                       # Number of misses that were no-allocate
system.cpu0.icache.tags.replacements               49                       # number of replacements
system.cpu0.icache.tags.tagsinuse          288.918194                       # Cycle average of tags in use
system.cpu0.icache.tags.total_refs               1379                       # Total number of references to valid blocks.
system.cpu0.icache.tags.sampled_refs              338                       # Sample count of references to valid blocks.
system.cpu0.icache.tags.avg_refs             4.079882                       # Average number of references to valid blocks.
system.cpu0.icache.tags.warmup_cycle                0                       # Cycle when the warmup percentage was hit.
system.cpu0.icache.tags.occ_blocks::cpu0.inst   288.918194                       # Average occupied blocks per requestor
system.cpu0.icache.tags.occ_percent::cpu0.inst     0.564293                       # Average percentage of cache occupancy
system.cpu0.icache.tags.occ_percent::total     0.564293                       # Average percentage of cache occupancy
system.cpu0.icache.tags.occ_task_id_blocks::1024          289                       # Occupied blocks per task id
system.cpu0.icache.tags.age_task_id_blocks_1024::4          289                       # Occupied blocks per task id
system.cpu0.icache.tags.occ_task_id_percent::1024     0.564453                       # Percentage of cache occupancy per task id
system.cpu0.icache.tags.tag_accesses             3872                       # Number of tag accesses
system.cpu0.icache.tags.data_accesses            3872                       # Number of data accesses
system.cpu0.icache.ReadReq_hits::cpu0.inst         1379                       # number of ReadReq hits
system.cpu0.icache.ReadReq_hits::total           1379                       # number of ReadReq hits
system.cpu0.icache.demand_hits::cpu0.inst         1379                       # number of demand (read+write) hits
system.cpu0.icache.demand_hits::total            1379                       # number of demand (read+write) hits
system.cpu0.icache.overall_hits::cpu0.inst         1379                       # number of overall hits
system.cpu0.icache.overall_hits::total           1379                       # number of overall hits
system.cpu0.icache.ReadReq_misses::cpu0.inst          388                       # number of ReadReq misses
system.cpu0.icache.ReadReq_misses::total          388                       # number of ReadReq misses
system.cpu0.icache.demand_misses::cpu0.inst          388                       # number of demand (read+write) misses
system.cpu0.icache.demand_misses::total           388                       # number of demand (read+write) misses
system.cpu0.icache.overall_misses::cpu0.inst          388                       # number of overall misses
system.cpu0.icache.overall_misses::total          388                       # number of overall misses
system.cpu0.icache.ReadReq_miss_latency::cpu0.inst     20689998                       # number of ReadReq miss cycles
system.cpu0.icache.ReadReq_miss_latency::total     20689998                       # number of ReadReq miss cycles
system.cpu0.icache.demand_miss_latency::cpu0.inst     20689998                       # number of demand (read+write) miss cycles
system.cpu0.icache.demand_miss_latency::total     20689998                       # number of demand (read+write) miss cycles
system.cpu0.icache.overall_miss_latency::cpu0.inst     20689998                       # number of overall miss cycles
system.cpu0.icache.overall_miss_latency::total     20689998                       # number of overall miss cycles
system.cpu0.icache.ReadReq_accesses::cpu0.inst         1767                       # number of ReadReq accesses(hits+misses)
system.cpu0.icache.ReadReq_accesses::total         1767                       # number of ReadReq accesses(hits+misses)
system.cpu0.icache.demand_accesses::cpu0.inst         1767                       # number of demand (read+write) accesses
system.cpu0.icache.demand_accesses::total         1767                       # number of demand (read+write) accesses
system.cpu0.icache.overall_accesses::cpu0.inst         1767                       # number of overall (read+write) accesses
system.cpu0.icache.overall_accesses::total         1767                       # number of overall (read+write) accesses
system.cpu0.icache.ReadReq_miss_rate::cpu0.inst     0.219581                       # miss rate for ReadReq accesses
system.cpu0.icache.ReadReq_miss_rate::total     0.219581                       # miss rate for ReadReq accesses
system.cpu0.icache.demand_miss_rate::cpu0.inst     0.219581                       # miss rate for demand accesses
system.cpu0.icache.demand_miss_rate::total     0.219581                       # miss rate for demand accesses
system.cpu0.icache.overall_miss_rate::cpu0.inst     0.219581                       # miss rate for overall accesses
system.cpu0.icache.overall_miss_rate::total     0.219581                       # miss rate for overall accesses
system.cpu0.icache.ReadReq_avg_miss_latency::cpu0.inst 53324.737113                       # average ReadReq miss latency
system.cpu0.icache.ReadReq_avg_miss_latency::total 53324.737113                       # average ReadReq miss latency
system.cpu0.icache.demand_avg_miss_latency::cpu0.inst 53324.737113                       # average overall miss latency
system.cpu0.icache.demand_avg_miss_latency::total 53324.737113                       # average overall miss latency
system.cpu0.icache.overall_avg_miss_latency::cpu0.inst 53324.737113                       # average overall miss latency
system.cpu0.icache.overall_avg_miss_latency::total 53324.737113                       # average overall miss latency
system.cpu0.icache.blocked_cycles::no_mshrs           11                       # number of cycles access was blocked
system.cpu0.icache.blocked_cycles::no_targets            0                       # number of cycles access was blocked
system.cpu0.icache.blocked::no_mshrs                1                       # number of cycles access was blocked
system.cpu0.icache.blocked::no_targets              0                       # number of cycles access was blocked
system.cpu0.icache.avg_blocked_cycles::no_mshrs           11                       # average number of cycles each access was blocked
system.cpu0.icache.avg_blocked_cycles::no_targets          nan                       # average number of cycles each access was blocked
system.cpu0.icache.fast_writes                      0                       # number of fast writes performed
system.cpu0.icache.cache_copies                     0                       # number of cache copies performed
[...]
system.l2.demand_mshr_miss_rate::cpu4.inst     0.050425                       # mshr miss rate for demand accesses
system.l2.demand_mshr_miss_rate::cpu4.data     0.567341                       # mshr miss rate for demand accesses
system.l2.demand_mshr_miss_rate::total       0.559321                       # mshr miss rate for demand accesses
system.l2.overall_mshr_miss_rate::cpu0.inst     0.937870                       # mshr miss rate for overall accesses
system.l2.overall_mshr_miss_rate::cpu0.data     0.905405                       # mshr miss rate for overall accesses
system.l2.overall_mshr_miss_rate::cpu1.inst     0.046875                       # mshr miss rate for overall accesses
system.l2.overall_mshr_miss_rate::cpu1.data     0.567166                       # mshr miss rate for overall accesses
system.l2.overall_mshr_miss_rate::cpu2.inst     0.028265                       # mshr miss rate for overall accesses
system.l2.overall_mshr_miss_rate::cpu2.data     0.578731                       # mshr miss rate for overall accesses
system.l2.overall_mshr_miss_rate::cpu3.inst     0.072438                       # mshr miss rate for overall accesses
system.l2.overall_mshr_miss_rate::cpu3.data     0.577710                       # mshr miss rate for overall accesses
system.l2.overall_mshr_miss_rate::cpu4.inst     0.050425                       # mshr miss rate for overall accesses
system.l2.overall_mshr_miss_rate::cpu4.data     0.567341                       # mshr miss rate for overall accesses
system.l2.overall_mshr_miss_rate::total      0.559321                       # mshr miss rate for overall accesses
system.l2.ReadReq_avg_mshr_miss_latency::cpu0.inst 41037.854890                       # average ReadReq mshr miss latency
system.l2.ReadReq_avg_mshr_miss_latency::cpu0.data 42196.428571                       # average ReadReq mshr miss latency
system.l2.ReadReq_avg_mshr_miss_latency::cpu1.inst 40672.839506                       # average ReadReq mshr miss latency
system.l2.ReadReq_avg_mshr_miss_latency::cpu1.data 40527.393961                       # average ReadReq mshr miss latency
system.l2.ReadReq_avg_mshr_miss_latency::cpu2.inst        40580                       # average ReadReq mshr miss latency
system.l2.ReadReq_avg_mshr_miss_latency::cpu2.data 40525.143722                       # average ReadReq mshr miss latency
system.l2.ReadReq_avg_mshr_miss_latency::cpu3.inst 40922.764228                       # average ReadReq mshr miss latency
system.l2.ReadReq_avg_mshr_miss_latency::cpu3.data 40530.585623                       # average ReadReq mshr miss latency
system.l2.ReadReq_avg_mshr_miss_latency::cpu4.inst 40668.674699                       # average ReadReq mshr miss latency
system.l2.ReadReq_avg_mshr_miss_latency::cpu4.data 40530.601660                       # average ReadReq mshr miss latency
system.l2.ReadReq_avg_mshr_miss_latency::total 40531.236977                       # average ReadReq mshr miss latency
system.l2.UpgradeReq_avg_mshr_miss_latency::cpu0.data        44000                       # average UpgradeReq mshr miss latency
system.l2.UpgradeReq_avg_mshr_miss_latency::cpu1.data 40534.728026                       # average UpgradeReq mshr miss latency
system.l2.UpgradeReq_avg_mshr_miss_latency::cpu2.data 40540.396142                       # average UpgradeReq mshr miss latency
system.l2.UpgradeReq_avg_mshr_miss_latency::cpu3.data 40538.549097                       # average UpgradeReq mshr miss latency
system.l2.UpgradeReq_avg_mshr_miss_latency::cpu4.data 40544.702333                       # average UpgradeReq mshr miss latency
system.l2.UpgradeReq_avg_mshr_miss_latency::total 40539.520080                       # average UpgradeReq mshr miss latency
system.l2.SCUpgradeReq_avg_mshr_miss_latency::cpu1.data 40517.055506                       # average SCUpgradeReq mshr miss latency
system.l2.SCUpgradeReq_avg_mshr_miss_latency::cpu2.data 40519.709775                       # average SCUpgradeReq mshr miss latency
system.l2.SCUpgradeReq_avg_mshr_miss_latency::cpu3.data 40516.557771                       # average SCUpgradeReq mshr miss latency
system.l2.SCUpgradeReq_avg_mshr_miss_latency::cpu4.data 40518.617291                       # average SCUpgradeReq mshr miss latency
system.l2.SCUpgradeReq_avg_mshr_miss_latency::total 40517.956308                       # average SCUpgradeReq mshr miss latency
system.l2.ReadExReq_avg_mshr_miss_latency::cpu0.data 40812.500000                       # average ReadExReq mshr miss latency
system.l2.ReadExReq_avg_mshr_miss_latency::cpu1.data 40602.816901                       # average ReadExReq mshr miss latency
system.l2.ReadExReq_avg_mshr_miss_latency::cpu2.data 40631.396957                       # average ReadExReq mshr miss latency
system.l2.ReadExReq_avg_mshr_miss_latency::cpu3.data 40622.052705                       # average ReadExReq mshr miss latency
system.l2.ReadExReq_avg_mshr_miss_latency::cpu4.data 40623.961219                       # average ReadExReq mshr miss latency
system.l2.ReadExReq_avg_mshr_miss_latency::total 40631.699346                       # average ReadExReq mshr miss latency
system.l2.demand_avg_mshr_miss_latency::cpu0.inst 41037.854890                       # average overall mshr miss latency
system.l2.demand_avg_mshr_miss_latency::cpu0.data 41246.268657                       # average overall mshr miss latency
system.l2.demand_avg_mshr_miss_latency::cpu1.inst 40672.839506                       # average overall mshr miss latency
system.l2.demand_avg_mshr_miss_latency::cpu1.data 40528.972266                       # average overall mshr miss latency
system.l2.demand_avg_mshr_miss_latency::cpu2.inst        40580                       # average overall mshr miss latency
system.l2.demand_avg_mshr_miss_latency::cpu2.data 40527.418352                       # average overall mshr miss latency
system.l2.demand_avg_mshr_miss_latency::cpu3.inst 40922.764228                       # average overall mshr miss latency
system.l2.demand_avg_mshr_miss_latency::cpu3.data 40532.380071                       # average overall mshr miss latency
system.l2.demand_avg_mshr_miss_latency::cpu4.inst 40668.674699                       # average overall mshr miss latency
system.l2.demand_avg_mshr_miss_latency::cpu4.data 40532.557600                       # average overall mshr miss latency
system.l2.demand_avg_mshr_miss_latency::total 40533.435357                       # average overall mshr miss latency
system.l2.overall_avg_mshr_miss_latency::cpu0.inst 41037.854890                       # average overall mshr miss latency
system.l2.overall_avg_mshr_miss_latency::cpu0.data 41246.268657                       # average overall mshr miss latency
system.l2.overall_avg_mshr_miss_latency::cpu1.inst 40672.839506                       # average overall mshr miss latency
system.l2.overall_avg_mshr_miss_latency::cpu1.data 40528.972266                       # average overall mshr miss latency
system.l2.overall_avg_mshr_miss_latency::cpu2.inst        40580                       # average overall mshr miss latency
system.l2.overall_avg_mshr_miss_latency::cpu2.data 40527.418352                       # average overall mshr miss latency
system.l2.overall_avg_mshr_miss_latency::cpu3.inst 40922.764228                       # average overall mshr miss latency
system.l2.overall_avg_mshr_miss_latency::cpu3.data 40532.380071                       # average overall mshr miss latency
system.l2.overall_avg_mshr_miss_latency::cpu4.inst 40668.674699                       # average overall mshr miss latency
system.l2.overall_avg_mshr_miss_latency::cpu4.data 40532.557600                       # average overall mshr miss latency
system.l2.overall_avg_mshr_miss_latency::total 40533.435357                       # average overall mshr miss latency
system.l2.no_allocate_misses                        0                       # Number of misses that were no-allocate
system.membus.trans_dist::ReadReq              136777                       # Transaction distribution
system.membus.trans_dist::ReadResp             136777                       # Transaction distribution
system.membus.trans_dist::Writeback              2761                       # Transaction distribution
system.membus.trans_dist::UpgradeReq           302891                       # Transaction distribution
system.membus.trans_dist::SCUpgradeReq         259963                       # Transaction distribution
system.membus.trans_dist::UpgradeResp          186896                       # Transaction distribution
system.membus.trans_dist::ReadExReq              3063                       # Transaction distribution
system.membus.trans_dist::ReadExResp             3060                       # Transaction distribution
system.membus.pkt_count_system.l2.mem_side::system.physmem.port      1032188                       # Packet count per connected master and slave (bytes)
system.membus.pkt_count::total                1032188                       # Packet count per connected master and slave (bytes)
system.membus.pkt_size_system.l2.mem_side::system.physmem.port      9126272                       # Cumulative packet size per connected master and slave (bytes)
system.membus.pkt_size::total                 9126272                       # Cumulative packet size per connected master and slave (bytes)
system.membus.snoops                           375961                       # Total snoops (count)
system.membus.snoop_fanout::samples            707065                       # Request fanout histogram
system.membus.snoop_fanout::mean                    0                       # Request fanout histogram
system.membus.snoop_fanout::stdev                   0                       # Request fanout histogram
system.membus.snoop_fanout::underflows              0      0.00%      0.00% # Request fanout histogram
system.membus.snoop_fanout::0                  707065    100.00%    100.00% # Request fanout histogram
system.membus.snoop_fanout::1                       0      0.00%    100.00% # Request fanout histogram
system.membus.snoop_fanout::overflows               0      0.00%    100.00% # Request fanout histogram
system.membus.snoop_fanout::min_value               0                       # Request fanout histogram
system.membus.snoop_fanout::max_value               0                       # Request fanout histogram
system.membus.snoop_fanout::total              707065                       # Request fanout histogram
system.membus.reqLayer0.occupancy           503309087                       # Layer occupancy (ticks)
system.membus.reqLayer0.utilization               1.3                       # Layer utilization (%)
system.membus.respLayer1.occupancy         1044318949                       # Layer occupancy (ticks)
system.membus.respLayer1.utilization              2.6                       # Layer utilization (%)
system.tol2bus.trans_dist::ReadReq            1095655                       # Transaction distribution
system.tol2bus.trans_dist::ReadResp           1095564                       # Transaction distribution
system.tol2bus.trans_dist::ReadRespWithInvalidate           91                       # Transaction distribution
system.tol2bus.trans_dist::Writeback             7500                       # Transaction distribution
system.tol2bus.trans_dist::UpgradeReq          302896                       # Transaction distribution
system.tol2bus.trans_dist::SCUpgradeReq        259966                       # Transaction distribution
system.tol2bus.trans_dist::UpgradeResp         562862                       # Transaction distribution
system.tol2bus.trans_dist::SCUpgradeFailReq        53710                       # Transaction distribution
system.tol2bus.trans_dist::UpgradeFailResp        53710                       # Transaction distribution
system.tol2bus.trans_dist::ReadExReq             3743                       # Transaction distribution
system.tol2bus.trans_dist::ReadExResp            3743                       # Transaction distribution
system.tol2bus.pkt_count_system.cpu0.icache.mem_side::system.l2.cpu_side          676                       # Packet count per connected master and slave (bytes)
system.tol2bus.pkt_count_system.cpu0.dcache.mem_side::system.l2.cpu_side          608                       # Packet count per connected master and slave (bytes)
system.tol2bus.pkt_count_system.cpu1.icache.mem_side::system.l2.cpu_side         3456                       # Packet count per connected master and slave (bytes)
system.tol2bus.pkt_count_system.cpu1.dcache.mem_side::system.l2.cpu_side       538522                       # Packet count per connected master and slave (bytes)
system.tol2bus.pkt_count_system.cpu2.icache.mem_side::system.l2.cpu_side         3538                       # Packet count per connected master and slave (bytes)
system.tol2bus.pkt_count_system.cpu2.dcache.mem_side::system.l2.cpu_side       534633                       # Packet count per connected master and slave (bytes)
system.tol2bus.pkt_count_system.cpu3.icache.mem_side::system.l2.cpu_side         3396                       # Packet count per connected master and slave (bytes)
system.tol2bus.pkt_count_system.cpu3.dcache.mem_side::system.l2.cpu_side       550852                       # Packet count per connected master and slave (bytes)
system.tol2bus.pkt_count_system.cpu4.icache.mem_side::system.l2.cpu_side         3292                       # Packet count per connected master and slave (bytes)
system.tol2bus.pkt_count_system.cpu4.dcache.mem_side::system.l2.cpu_side       521413                       # Packet count per connected master and slave (bytes)
system.tol2bus.pkt_count::total               2160386                       # Packet count per connected master and slave (bytes)
system.tol2bus.pkt_size_system.cpu0.icache.mem_side::system.l2.cpu_side        21632                       # Cumulative packet size per connected master and slave (bytes)
system.tol2bus.pkt_size_system.cpu0.dcache.mem_side::system.l2.cpu_side        19840                       # Cumulative packet size per connected master and slave (bytes)
system.tol2bus.pkt_size_system.cpu1.icache.mem_side::system.l2.cpu_side       110592                       # Cumulative packet size per connected master and slave (bytes)
system.tol2bus.pkt_size_system.cpu1.dcache.mem_side::system.l2.cpu_side      3942272                       # Cumulative packet size per connected master and slave (bytes)
system.tol2bus.pkt_size_system.cpu2.icache.mem_side::system.l2.cpu_side       113216                       # Cumulative packet size per connected master and slave (bytes)
system.tol2bus.pkt_size_system.cpu2.dcache.mem_side::system.l2.cpu_side      3849792                       # Cumulative packet size per connected master and slave (bytes)
system.tol2bus.pkt_size_system.cpu3.icache.mem_side::system.l2.cpu_side       108672                       # Cumulative packet size per connected master and slave (bytes)
system.tol2bus.pkt_size_system.cpu3.dcache.mem_side::system.l2.cpu_side      4193344                       # Cumulative packet size per connected master and slave (bytes)
system.tol2bus.pkt_size_system.cpu4.icache.mem_side::system.l2.cpu_side       105344                       # Cumulative packet size per connected master and slave (bytes)
system.tol2bus.pkt_size_system.cpu4.dcache.mem_side::system.l2.cpu_side      4016064                       # Cumulative packet size per connected master and slave (bytes)
system.tol2bus.pkt_size::total               16480768                       # Cumulative packet size per connected master and slave (bytes)
system.tol2bus.snoops                         1279054                       # Total snoops (count)
system.tol2bus.snoop_fanout::samples          1723470                       # Request fanout histogram
system.tol2bus.snoop_fanout::mean                   9                       # Request fanout histogram
system.tol2bus.snoop_fanout::stdev                  0                       # Request fanout histogram
system.tol2bus.snoop_fanout::underflows             0      0.00%      0.00% # Request fanout histogram
system.tol2bus.snoop_fanout::0                      0      0.00%      0.00% # Request fanout histogram
system.tol2bus.snoop_fanout::1                      0      0.00%      0.00% # Request fanout histogram
system.tol2bus.snoop_fanout::2                      0      0.00%      0.00% # Request fanout histogram
system.tol2bus.snoop_fanout::3                      0      0.00%      0.00% # Request fanout histogram
system.tol2bus.snoop_fanout::4                      0      0.00%      0.00% # Request fanout histogram
system.tol2bus.snoop_fanout::5                      0      0.00%      0.00% # Request fanout histogram
system.tol2bus.snoop_fanout::6                      0      0.00%      0.00% # Request fanout histogram
system.tol2bus.snoop_fanout::7                      0      0.00%      0.00% # Request fanout histogram
system.tol2bus.snoop_fanout::8                      0      0.00%      0.00% # Request fanout histogram
system.tol2bus.snoop_fanout::9                1723470    100.00%    100.00% # Request fanout histogram
system.tol2bus.snoop_fanout::10                     0      0.00%    100.00% # Request fanout histogram
system.tol2bus.snoop_fanout::overflows              0      0.00%    100.00% # Request fanout histogram
system.tol2bus.snoop_fanout::min_value              9                       # Request fanout histogram
system.tol2bus.snoop_fanout::max_value              9                       # Request fanout histogram
system.tol2bus.snoop_fanout::total            1723470                       # Request fanout histogram
system.tol2bus.reqLayer0.occupancy          873279888                       # Layer occupancy (ticks)
system.tol2bus.reqLayer0.utilization              2.2                       # Layer utilization (%)
system.tol2bus.respLayer0.occupancy            507998                       # Layer occupancy (ticks)
system.tol2bus.respLayer0.utilization             0.0                       # Layer utilization (%)
system.tol2bus.respLayer1.occupancy            447494                       # Layer occupancy (ticks)
system.tol2bus.respLayer1.utilization             0.0                       # Layer utilization (%)
system.tol2bus.respLayer4.occupancy           2626410                       # Layer occupancy (ticks)
system.tol2bus.respLayer4.utilization             0.0                       # Layer utilization (%)
system.tol2bus.respLayer5.occupancy         513634373                       # Layer occupancy (ticks)
system.tol2bus.respLayer5.utilization             1.3                       # Layer utilization (%)
system.tol2bus.respLayer8.occupancy           2686381                       # Layer occupancy (ticks)
system.tol2bus.respLayer8.utilization             0.0                       # Layer utilization (%)
system.tol2bus.respLayer9.occupancy         511119211                       # Layer occupancy (ticks)
system.tol2bus.respLayer9.utilization             1.3                       # Layer utilization (%)
system.tol2bus.respLayer12.occupancy          2579896                       # Layer occupancy (ticks)
system.tol2bus.respLayer12.utilization            0.0                       # Layer utilization (%)
system.tol2bus.respLayer13.occupancy        513939715                       # Layer occupancy (ticks)
system.tol2bus.respLayer13.utilization            1.3                       # Layer utilization (%)
system.tol2bus.respLayer16.occupancy          2500388                       # Layer occupancy (ticks)
system.tol2bus.respLayer16.utilization            0.0                       # Layer utilization (%)
system.tol2bus.respLayer17.occupancy        488363145                       # Layer occupancy (ticks)
system.tol2bus.respLayer17.utilization            1.2                       # Layer utilization (%)

---------- End Simulation Statistics   ----------
