
---------- Begin Simulation Statistics ----------
sim_seconds                                  0.000052                       # Number of seconds simulated
sim_ticks                                    52217000                       # Number of ticks simulated
final_tick                                   52217000                       # Number of ticks from beginning of simulation (restored from checkpoints and never reset)
sim_freq                                 1000000000000                       # Frequency of simulated ticks
host_inst_rate                                 171267                       # Simulator instruction rate (inst/s)
host_op_rate                                   185576                       # Simulator op (including micro ops) rate (op/s)
host_tick_rate                               89279731                       # Simulator tick rate (ticks/s)
host_mem_usage                                 685284                       # Number of bytes of host memory used
host_seconds                                     0.58                       # Real time elapsed on the host
sim_insts                                      100165                       # Number of instructions simulated
sim_ops                                        108536                       # Number of ops (including micro ops) simulated
system.voltage_domain.voltage                       1                       # Voltage in Volts
system.clk_domain.clock                          1000                       # Clock period in ticks
system.physmem.bytes_read::cpu0.inst            20736                       # Number of bytes read from this memory
system.physmem.bytes_read::cpu0.data            16768                       # Number of bytes read from this memory
system.physmem.bytes_read::cpu1.inst             6656                       # Number of bytes read from this memory
system.physmem.bytes_read::cpu1.data             3072                       # Number of bytes read from this memory
system.physmem.bytes_read::cpu2.inst             6656                       # Number of bytes read from this memory
system.physmem.bytes_read::cpu2.data             2944                       # Number of bytes read from this memory
system.physmem.bytes_read::total                56832                       # Number of bytes read from this memory
system.physmem.bytes_inst_read::cpu0.inst        20736                       # Number of instructions bytes read from this memory
system.physmem.bytes_inst_read::cpu1.inst         6656                       # Number of instructions bytes read from this memory
system.physmem.bytes_inst_read::cpu2.inst         6656                       # Number of instructions bytes read from this memory
system.physmem.bytes_inst_read::total           34048                       # Number of instructions bytes read from this memory
system.physmem.num_reads::cpu0.inst               324                       # Number of read requests responded to by this memory
system.physmem.num_reads::cpu0.data               262                       # Number of read requests responded to by this memory
system.physmem.num_reads::cpu1.inst               104                       # Number of read requests responded to by this memory
system.physmem.num_reads::cpu1.data                48                       # Number of read requests responded to by this memory
system.physmem.num_reads::cpu2.inst               104                       # Number of read requests responded to by this memory
system.physmem.num_reads::cpu2.data                46                       # Number of read requests responded to by this memory
system.physmem.num_reads::total                   888                       # Number of read requests responded to by this memory
system.physmem.bw_read::cpu0.inst           397112052                       # Total read bandwidth from this memory (bytes/s)
system.physmem.bw_read::cpu0.data           321121474                       # Total read bandwidth from this memory (bytes/s)
system.physmem.bw_read::cpu1.inst           127468066                       # Total read bandwidth from this memory (bytes/s)
system.physmem.bw_read::cpu1.data            58831415                       # Total read bandwidth from this memory (bytes/s)
system.physmem.bw_read::cpu2.inst           127468066                       # Total read bandwidth from this memory (bytes/s)
system.physmem.bw_read::cpu2.data            56380106                       # Total read bandwidth from this memory (bytes/s)
system.physmem.bw_read::total              1088381179                       # Total read bandwidth from this memory (bytes/s)
system.physmem.bw_inst_read::cpu0.inst      397112052                       # Instruction read bandwidth from this memory (bytes/s)
system.physmem.bw_inst_read::cpu1.inst      127468066                       # Instruction read bandwidth from this memory (bytes/s)
system.physmem.bw_inst_read::cpu2.inst      127468066                       # Instruction read bandwidth from this memory (bytes/s)
system.physmem.bw_inst_read::total          652048184                       # Instruction read bandwidth from this memory (bytes/s)
system.physmem.bw_total::cpu0.inst          397112052                       # Total bandwidth to/from this memory (bytes/s)
system.physmem.bw_total::cpu0.data          321121474                       # Total bandwidth to/from this memory (bytes/s)
system.physmem.bw_total::cpu1.inst          127468066                       # Total bandwidth to/from this memory (bytes/s)
system.physmem.bw_total::cpu1.data           58831415                       # Total bandwidth to/from this memory (bytes/s)
system.physmem.bw_total::cpu2.inst          127468066                       # Total bandwidth to/from this memory (bytes/s)
system.physmem.bw_total::cpu2.data           56380106                       # Total bandwidth to/from this memory (bytes/s)
system.physmem.bw_total::total             1088381179                       # Total bandwidth to/from this memory (bytes/s)
system.cpu0.branchPred.lookups                  15690                       # Number of BP lookups
system.cpu0.branchPred.condPredicted            14676                       # Number of conditional branches predicted
system.cpu0.branchPred.condIncorrect              699                       # Number of conditional branches incorrect
system.cpu0.branchPred.BTBLookups               13593                       # Number of BTB lookups
system.cpu0.branchPred.BTBHits                  13227                       # Number of BTB hits
system.cpu0.branchPred.BTBCorrect                   0                       # Number of correct BTB predictions (this stat may not work properly.
system.cpu0.branchPred.BTBHitPct            97.307438                       # BTB Hit Percentage
system.cpu0.branchPred.usedRAS                    395                       # Number of times the RAS was used to get a target.
system.cpu0.branchPred.RASInCorrect                51                       # Number of incorrect RAS predictions.
system.cpu0.dstage2_mmu.stage2_tlb.walker.walks            0                       # Table walker walks requested
system.cpu0.dstage2_mmu.stage2_tlb.walker.walkRequestOrigin_Requested::Data            0                       # Table walker requests started/completed, data/inst
system.cpu0.dstage2_mmu.stage2_tlb.walker.walkRequestOrigin_Requested::Inst            0                       # Table walker requests started/completed, data/inst
system.cpu0.dstage2_mmu.stage2_tlb.walker.walkRequestOrigin_Requested::total            0                       # Table walker requests started/completed, data/inst
system.cpu0.dstage2_mmu.stage2_tlb.walker.walkRequestOrigin_Completed::Data            0                       # Table walker requests started/completed, data/inst
system.cpu0.dstage2_mmu.stage2_tlb.walker.walkRequestOrigin_Completed::Inst            0                       # Table walker requests started/completed, data/inst
system.cpu0.dstage2_mmu.stage2_tlb.walker.walkRequestOrigin_Completed::total            0                       # Table walker requests started/completed, data/inst
system.cpu0.dstage2_mmu.stage2_tlb.walker.walkRequestOrigin::total            0                       # Table walker requests started/completed, data/inst
system.cpu0.dstage2_mmu.stage2_tlb.inst_hits            0                       # ITB inst hits
system.cpu0.dstage2_mmu.stage2_tlb.inst_misses            0                       # ITB inst misses
system.cpu0.dstage2_mmu.stage2_tlb.read_hits            0                       # DTB read hits
system.cpu0.dstage2_mmu.stage2_tlb.read_misses            0                       # DTB read misses
system.cpu0.dstage2_mmu.stage2_tlb.write_hits            0                       # DTB write hits
system.cpu0.dstage2_mmu.stage2_tlb.write_misses            0                       # DTB write misses
system.cpu0.dstage2_mmu.stage2_tlb.flush_tlb            0                       # Number of times complete TLB was flushed
system.cpu0.dstage2_mmu.stage2_tlb.flush_tlb_mva            0                       # Number of times TLB was flushed by MVA
system.cpu0.dstage2_mmu.stage2_tlb.flush_tlb_mva_asid            0                       # Number of times TLB was flushed by MVA & ASID
system.cpu0.dstage2_mmu.stage2_tlb.flush_tlb_asid            0                       # Number of times TLB was flushed by ASID
system.cpu0.dstage2_mmu.stage2_tlb.flush_entries            0                       # Number of entries that have been flushed from TLB
system.cpu0.dstage2_mmu.stage2_tlb.align_faults            0                       # Number of TLB faults due to alignment restrictions
system.cpu0.dstage2_mmu.stage2_tlb.prefetch_faults            0                       # Number of TLB faults due to prefetch
system.cpu0.dstage2_mmu.stage2_tlb.domain_faults            0                       # Number of TLB faults due to domain restrictions
system.cpu0.dstage2_mmu.stage2_tlb.perms_faults            0                       # Number of TLB faults due to permissions restrictions
system.cpu0.dstage2_mmu.stage2_tlb.read_accesses            0                       # DTB read accesses
system.cpu0.dstage2_mmu.stage2_tlb.write_accesses            0                       # DTB write accesses
system.cpu0.dstage2_mmu.stage2_tlb.inst_accesses            0                       # ITB inst accesses
system.cpu0.dstage2_mmu.stage2_tlb.hits             0                       # DTB hits
system.cpu0.dstage2_mmu.stage2_tlb.misses            0                       # DTB misses
system.cpu0.dstage2_mmu.stage2_tlb.accesses            0                       # DTB accesses
system.cpu0.dtb.walker.walks                        0                       # Table walker walks requested
system.cpu0.dtb.walker.walkRequestOrigin_Requested::Data            0                       # Table walker requests started/completed, data/inst
system.cpu0.dtb.walker.walkRequestOrigin_Requested::Inst            0                       # Table walker requests started/completed, data/inst
system.cpu0.dtb.walker.walkRequestOrigin_Requested::total            0                       # Table walker requests started/completed, data/inst
system.cpu0.dtb.walker.walkRequestOrigin_Completed::Data            0                       # Table walker requests started/completed, data/inst
system.cpu0.dtb.walker.walkRequestOrigin_Completed::Inst            0                       # Table walker requests started/completed, data/inst
system.cpu0.dtb.walker.walkRequestOrigin_Completed::total            0                       # Table walker requests started/completed, data/inst
system.cpu0.dtb.walker.walkRequestOrigin::total            0                       # Table walker requests started/completed, data/inst
system.cpu0.dtb.inst_hits                           0                       # ITB inst hits
system.cpu0.dtb.inst_misses                         0                       # ITB inst misses
system.cpu0.dtb.read_hits                           0                       # DTB read hits
system.cpu0.dtb.read_misses                         0                       # DTB read misses
system.cpu0.dtb.write_hits                          0                       # DTB write hits
system.cpu0.dtb.write_misses                        0                       # DTB write misses
system.cpu0.dtb.flush_tlb                           0                       # Number of times complete TLB was flushed
system.cpu0.dtb.flush_tlb_mva                       0                       # Number of times TLB was flushed by MVA
system.cpu0.dtb.flush_tlb_mva_asid                  0                       # Number of times TLB was flushed by MVA & ASID
system.cpu0.dtb.flush_tlb_asid                      0                       # Number of times TLB was flushed by ASID
system.cpu0.dtb.flush_entries                       0                       # Number of entries that have been flushed from TLB
system.cpu0.dtb.align_faults                        0                       # Number of TLB faults due to alignment restrictions
system.cpu0.dtb.prefetch_faults                     0                       # Number of TLB faults due to prefetch
system.cpu0.dtb.domain_faults                       0                       # Number of TLB faults due to domain restrictions
system.cpu0.dtb.perms_faults                        0                       # Number of TLB faults due to permissions restrictions
system.cpu0.dtb.read_accesses                       0                       # DTB read accesses
system.cpu0.dtb.write_accesses                      0                       # DTB write accesses
system.cpu0.dtb.inst_accesses                       0                       # ITB inst accesses
system.cpu0.dtb.hits                                0                       # DTB hits
system.cpu0.dtb.misses                              0                       # DTB misses
system.cpu0.dtb.accesses                            0                       # DTB accesses
system.cpu0.istage2_mmu.stage2_tlb.walker.walks            0                       # Table walker walks requested
system.cpu0.istage2_mmu.stage2_tlb.walker.walkRequestOrigin_Requested::Data            0                       # Table walker requests started/completed, data/inst
system.cpu0.istage2_mmu.stage2_tlb.walker.walkRequestOrigin_Requested::Inst            0                       # Table walker requests started/completed, data/inst
system.cpu0.istage2_mmu.stage2_tlb.walker.walkRequestOrigin_Requested::total            0                       # Table walker requests started/completed, data/inst
system.cpu0.istage2_mmu.stage2_tlb.walker.walkRequestOrigin_Completed::Data            0                       # Table walker requests started/completed, data/inst
system.cpu0.istage2_mmu.stage2_tlb.walker.walkRequestOrigin_Completed::Inst            0                       # Table walker requests started/completed, data/inst
system.cpu0.istage2_mmu.stage2_tlb.walker.walkRequestOrigin_Completed::total            0                       # Table walker requests started/completed, data/inst
system.cpu0.istage2_mmu.stage2_tlb.walker.walkRequestOrigin::total            0                       # Table walker requests started/completed, data/inst
system.cpu0.istage2_mmu.stage2_tlb.inst_hits            0                       # ITB inst hits
system.cpu0.istage2_mmu.stage2_tlb.inst_misses            0                       # ITB inst misses
system.cpu0.istage2_mmu.stage2_tlb.read_hits            0                       # DTB read hits
system.cpu0.istage2_mmu.stage2_tlb.read_misses            0                       # DTB read misses
system.cpu0.istage2_mmu.stage2_tlb.write_hits            0                       # DTB write hits
system.cpu0.istage2_mmu.stage2_tlb.write_misses            0                       # DTB write misses
system.cpu0.istage2_mmu.stage2_tlb.flush_tlb            0                       # Number of times complete TLB was flushed
system.cpu0.istage2_mmu.stage2_tlb.flush_tlb_mva            0                       # Number of times TLB was flushed by MVA
system.cpu0.istage2_mmu.stage2_tlb.flush_tlb_mva_asid            0                       # Number of times TLB was flushed by MVA & ASID
system.cpu0.istage2_mmu.stage2_tlb.flush_tlb_asid            0                       # Number of times TLB was flushed by ASID
system.cpu0.istage2_mmu.stage2_tlb.flush_entries            0                       # Number of entries that have been flushed from TLB
system.cpu0.istage2_mmu.stage2_tlb.align_faults            0                       # Number of TLB faults due to alignment restrictions
system.cpu0.istage2_mmu.stage2_tlb.prefetch_faults            0                       # Number of TLB faults due to prefetch
system.cpu0.istage2_mmu.stage2_tlb.domain_faults            0                       # Number of TLB faults due to domain restrictions
system.cpu0.istage2_mmu.stage2_tlb.perms_faults            0                       # Number of TLB faults due to permissions restrictions
system.cpu0.istage2_mmu.stage2_tlb.read_accesses            0                       # DTB read accesses
system.cpu0.istage2_mmu.stage2_tlb.write_accesses            0                       # DTB write accesses
system.cpu0.istage2_mmu.stage2_tlb.inst_accesses            0                       # ITB inst accesses
system.cpu0.istage2_mmu.stage2_tlb.hits             0                       # DTB hits
system.cpu0.istage2_mmu.stage2_tlb.misses            0                       # DTB misses
system.cpu0.istage2_mmu.stage2_tlb.accesses            0                       # DTB accesses
system.cpu0.itb.walker.walks                        0                       # Table walker walks requested
system.cpu0.itb.walker.walkRequestOrigin_Requested::Data            0                       # Table walker requests started/completed, data/inst
system.cpu0.itb.walker.walkRequestOrigin_Requested::Inst            0                       # Table walker requests started/completed, data/inst
system.cpu0.itb.walker.walkRequestOrigin_Requested::total            0                       # Table walker requests started/completed, data/inst
system.cpu0.itb.walker.walkRequestOrigin_Completed::Data            0                       # Table walker requests started/completed, data/inst
system.cpu0.itb.walker.walkRequestOrigin_Completed::Inst            0                       # Table walker requests started/completed, data/inst
system.cpu0.itb.walker.walkRequestOrigin_Completed::total            0                       # Table walker requests started/completed, data/inst
system.cpu0.itb.walker.walkRequestOrigin::total            0                       # Table walker requests started/completed, data/inst
system.cpu0.itb.inst_hits                           0                       # ITB inst hits
system.cpu0.itb.inst_misses                         0                       # ITB inst misses
system.cpu0.itb.read_hits                           0                       # DTB read hits
system.cpu0.itb.read_misses                         0                       # DTB read misses
system.cpu0.itb.write_hits                          0                       # DTB write hits
system.cpu0.itb.write_misses                        0                       # DTB write misses
system.cpu0.itb.flush_tlb                           0                       # Number of times complete TLB was flushed
system.cpu0.itb.flush_tlb_mva                       0                       # Number of times TLB was flushed by MVA
system.cpu0.itb.flush_tlb_mva_asid                  0                       # Number of times TLB was flushed by MVA & ASID
system.cpu0.itb.flush_tlb_asid                      0                       # Number of times TLB was flushed by ASID
system.cpu0.itb.flush_entries                       0                       # Number of entries that have been flushed from TLB
system.cpu0.itb.align_faults                        0                       # Number of TLB faults due to alignment restrictions
system.cpu0.itb.prefetch_faults                     0                       # Number of TLB faults due to prefetch
system.cpu0.itb.domain_faults                       0                       # Number of TLB faults due to domain restrictions
system.cpu0.itb.perms_faults                        0                       # Number of TLB faults due to permissions restrictions
system.cpu0.itb.read_accesses                       0                       # DTB read accesses
system.cpu0.itb.write_accesses                      0                       # DTB write accesses
system.cpu0.itb.inst_accesses                       0                       # ITB inst accesses
system.cpu0.itb.hits                                0                       # DTB hits
system.cpu0.itb.misses                              0                       # DTB misses
system.cpu0.itb.accesses                            0                       # DTB accesses
system.cpu0.workload.num_syscalls                  49                       # Number of system calls
system.cpu0.numCycles                           52218                       # number of cpu cycles simulated
system.cpu0.numWorkItemsStarted                     0                       # number of work items this cpu started
system.cpu0.numWorkItemsCompleted                   0                       # number of work items this cpu completed
system.cpu0.fetch.icacheStallCycles              7797                       # Number of cycles fetch is stalled on an Icache miss
system.cpu0.fetch.Insts                         80180                       # Number of instructions fetch has processed
system.cpu0.fetch.Branches                      15690                       # Number of branches that fetch encountered
system.cpu0.fetch.predictedBranches             13622                       # Number of branches that fetch has predicted taken
system.cpu0.fetch.Cycles                        35965                       # Number of cycles fetch has run and was not squashing or blocked
system.cpu0.fetch.SquashCycles                   1444                       # Number of cycles fetch has spent squashing
system.cpu0.fetch.PendingTrapStallCycles          168                       # Number of stall cycles due to pending traps
system.cpu0.fetch.CacheLines                     2121                       # Number of cache lines fetched
system.cpu0.fetch.IcacheSquashes                  253                       # Number of outstanding Icache misses that were squashed
system.cpu0.fetch.rateDist::samples             44652                       # Number of instructions fetched each cycle (Total)
system.cpu0.fetch.rateDist::mean             1.904192                       # Number of instructions fetched each cycle (Total)
system.cpu0.fetch.rateDist::stdev            1.207949                       # Number of instructions fetched each cycle (Total)
system.cpu0.fetch.rateDist::underflows              0      0.00%      0.00% # Number of instructions fetched each cycle (Total)
system.cpu0.fetch.rateDist::0                   11421     25.58%     25.58% # Number of instructions fetched each cycle (Total)
system.cpu0.fetch.rateDist::1                     657      1.47%     27.05% # Number of instructions fetched each cycle (Total)
system.cpu0.fetch.rateDist::2                   13353     29.90%     56.95% # Number of instructions fetched each cycle (Total)
system.cpu0.fetch.rateDist::3                   19221     43.05%    100.00% # Number of instructions fetched each cycle (Total)
system.cpu0.fetch.rateDist::overflows               0      0.00%    100.00% # Number of instructions fetched each cycle (Total)
system.cpu0.fetch.rateDist::min_value               0                       # Number of instructions fetched each cycle (Total)
system.cpu0.fetch.rateDist::max_value               3                       # Number of instructions fetched each cycle (Total)
system.cpu0.fetch.rateDist::total               44652                       # Number of instructions fetched each cycle (Total)
system.cpu0.fetch.branchRate                 0.300471                       # Number of branch fetches per cycle
system.cpu0.fetch.rate                       1.535486                       # Number of inst fetches per cycle
system.cpu0.decode.IdleCycles                    7286                       # Number of cycles decode is idle
system.cpu0.decode.BlockedCycles                 4511                       # Number of cycles decode is blocked
system.cpu0.decode.RunCycles                    31746                       # Number of cycles decode is running
system.cpu0.decode.UnblockCycles                  566                       # Number of cycles decode is unblocking
system.cpu0.decode.SquashCycles                   543                       # Number of cycles decode is squashing
system.cpu0.decode.BranchResolved                 379                       # Number of times decode resolved a branch
system.cpu0.decode.BranchMispred                  194                       # Number of times decode detected a branch misprediction
system.cpu0.decode.DecodedInsts                 82377                       # Number of instructions handled by decode
system.cpu0.decode.SquashedInsts                  431                       # Number of squashed instructions handled by decode
system.cpu0.rename.SquashCycles                   543                       # Number of cycles rename is squashing
system.cpu0.rename.IdleCycles                    7906                       # Number of cycles rename is idle
system.cpu0.rename.BlockCycles                    503                       # Number of cycles rename is blocking
system.cpu0.rename.serializeStallCycles          1651                       # count of cycles rename stalled for serializing inst
system.cpu0.rename.RunCycles                    31600                       # Number of cycles rename is running
system.cpu0.rename.UnblockCycles                 2449                       # Number of cycles rename is unblocking
system.cpu0.rename.RenamedInsts                 81527                       # Number of instructions processed by rename
system.cpu0.rename.SQFullEvents                  2331                       # Number of times rename has blocked due to SQ full
system.cpu0.rename.RenamedOperands              83374                       # Number of destination operands rename has renamed
system.cpu0.rename.RenameLookups               380141                       # Number of register rename lookups that rename has made
system.cpu0.rename.int_rename_lookups           87481                       # Number of integer rename lookups
system.cpu0.rename.fp_rename_lookups               16                       # Number of floating rename lookups
system.cpu0.rename.CommittedMaps                76095                       # Number of HB maps that are committed
system.cpu0.rename.UndoneMaps                    7251                       # Number of HB maps that are undone due to squashing
system.cpu0.rename.serializingInsts                43                       # count of serializing insts renamed
system.cpu0.rename.tempSerializingInsts            42                       # count of temporary serializing insts renamed
system.cpu0.rename.skidInsts                     1104                       # count of insts added to the skid buffer
system.cpu0.memDep0.insertedLoads               27806                       # Number of loads inserted to the mem dependence unit.
system.cpu0.memDep0.insertedStores              16431                       # Number of stores inserted to the mem dependence unit.
system.cpu0.memDep0.conflictingLoads            12637                       # Number of conflicting loads.
system.cpu0.memDep0.conflictingStores           12594                       # Number of conflicting stores.
system.cpu0.iq.iqInstsAdded                     79862                       # Number of instructions added to the IQ (excludes non-spec)
system.cpu0.iq.iqNonSpecInstsAdded                 63                       # Number of non-speculative instructions added to the IQ
system.cpu0.iq.iqInstsIssued                    78093                       # Number of instructions issued
system.cpu0.iq.iqSquashedInstsIssued              154                       # Number of squashed instructions issued
system.cpu0.iq.iqSquashedInstsExamined           4820                       # Number of squashed instructions iterated over during squash; mainly for profiling
system.cpu0.iq.iqSquashedOperandsExamined        11837                       # Number of squashed operands that are examined and possibly removed from graph
system.cpu0.iq.iqSquashedNonSpecRemoved             3                       # Number of squashed non-spec instructions that were removed
system.cpu0.iq.issued_per_cycle::samples        44652                       # Number of insts issued each cycle
system.cpu0.iq.issued_per_cycle::mean        1.748925                       # Number of insts issued each cycle
system.cpu0.iq.issued_per_cycle::stdev       1.250278                       # Number of insts issued each cycle
system.cpu0.iq.issued_per_cycle::underflows            0      0.00%      0.00% # Number of insts issued each cycle
system.cpu0.iq.issued_per_cycle::0              11999     26.87%     26.87% # Number of insts issued each cycle
system.cpu0.iq.issued_per_cycle::1               5915     13.25%     40.12% # Number of insts issued each cycle
system.cpu0.iq.issued_per_cycle::2               8036     18.00%     58.12% # Number of insts issued each cycle
system.cpu0.iq.issued_per_cycle::3              18702     41.88%    100.00% # Number of insts issued each cycle
system.cpu0.iq.issued_per_cycle::overflows            0      0.00%    100.00% # Number of insts issued each cycle
system.cpu0.iq.issued_per_cycle::min_value            0                       # Number of insts issued each cycle
system.cpu0.iq.issued_per_cycle::max_value            3                       # Number of insts issued each cycle
system.cpu0.iq.issued_per_cycle::total          44652                       # Number of insts issued each cycle
system.cpu0.iq.fu_full::No_OpClass                  0                       # attempts to use FU when none available
system.cpu0.iq.fu_full::IntAlu                      0                       # attempts to use FU when none available
system.cpu0.iq.fu_full::IntMult                     0                       # attempts to use FU when none available
system.cpu0.iq.fu_full::IntDiv                      0                       # attempts to use FU when none available
system.cpu0.iq.fu_full::FloatAdd                    0                       # attempts to use FU when none available
system.cpu0.iq.fu_full::FloatCmp                    0                       # attempts to use FU when none available
system.cpu0.iq.fu_full::FloatCvt                    0                       # attempts to use FU when none available
system.cpu0.iq.fu_full::FloatMult                   0                       # attempts to use FU when none available
system.cpu0.iq.fu_full::FloatDiv                    0                       # attempts to use FU when none available
system.cpu0.iq.fu_full::FloatSqrt                   0                       # attempts to use FU when none available
system.cpu0.iq.fu_full::SimdAdd                     0                       # attempts to use FU when none available
system.cpu0.iq.fu_full::SimdAddAcc                  0                       # attempts to use FU when none available
system.cpu0.iq.fu_full::SimdAlu                     0                       # attempts to use FU when none available
system.cpu0.iq.fu_full::SimdCmp                     0                       # attempts to use FU when none available
system.cpu0.iq.fu_full::SimdCvt                     0                       # attempts to use FU when none available
system.cpu0.iq.fu_full::SimdMisc                    0                       # attempts to use FU when none available
system.cpu0.iq.fu_full::SimdMult                    0                       # attempts to use FU when none available
system.cpu0.iq.fu_full::SimdMultAcc                 0                       # attempts to use FU when none available
system.cpu0.iq.fu_full::SimdShift                   0                       # attempts to use FU when none available
system.cpu0.iq.fu_full::SimdShiftAcc                0                       # attempts to use FU when none available
system.cpu0.iq.fu_full::SimdSqrt                    0                       # attempts to use FU when none available
system.cpu0.iq.fu_full::SimdFloatAdd                0                       # attempts to use FU when none available
system.cpu0.iq.fu_full::SimdFloatAlu                0                       # attempts to use FU when none available
system.cpu0.iq.fu_full::SimdFloatCmp                0                       # attempts to use FU when none available
system.cpu0.iq.fu_full::SimdFloatCvt                0                       # attempts to use FU when none available
system.cpu0.iq.fu_full::SimdFloatDiv                0                       # attempts to use FU when none available
system.cpu0.iq.fu_full::SimdFloatMisc               0                       # attempts to use FU when none available
system.cpu0.iq.fu_full::SimdFloatMult               0                       # attempts to use FU when none available
system.cpu0.iq.fu_full::SimdFloatMultAcc            0                       # attempts to use FU when none available
system.cpu0.iq.fu_full::SimdFloatSqrt               0                       # attempts to use FU when none available
system.cpu0.iq.fu_full::MemRead                     0                       # attempts to use FU when none available
system.cpu0.iq.fu_full::MemWrite                    0                       # attempts to use FU when none available
system.cpu0.iq.fu_full::IprAccess                   0                       # attempts to use FU when none available
system.cpu0.iq.fu_full::InstPrefetch                0                       # attempts to use FU when none available
system.cpu0.iq.FU_type_0::No_OpClass                0      0.00%      0.00% # Type of FU issued
system.cpu0.iq.FU_type_0::IntAlu                34356     43.99%     43.99% # Type of FU issued
system.cpu0.iq.FU_type_0::IntMult                   6      0.01%     44.00% # Type of FU issued
system.cpu0.iq.FU_type_0::IntDiv                    0      0.00%     44.00% # Type of FU issued
system.cpu0.iq.FU_type_0::FloatAdd                  0      0.00%     44.00% # Type of FU issued
system.cpu0.iq.FU_type_0::FloatCmp                  0      0.00%     44.00% # Type of FU issued
system.cpu0.iq.FU_type_0::FloatCvt                  0      0.00%     44.00% # Type of FU issued
system.cpu0.iq.FU_type_0::FloatMult                 0      0.00%     44.00% # Type of FU issued
system.cpu0.iq.FU_type_0::FloatDiv                  0      0.00%     44.00% # Type of FU issued
system.cpu0.iq.FU_type_0::FloatSqrt                 0      0.00%     44.00% # Type of FU issued
system.cpu0.iq.FU_type_0::SimdAdd                   0      0.00%     44.00% # Type of FU issued
system.cpu0.iq.FU_type_0::SimdAddAcc                0      0.00%     44.00% # Type of FU issued
system.cpu0.iq.FU_type_0::SimdAlu                   0      0.00%     44.00% # Type of FU issued
system.cpu0.iq.FU_type_0::SimdCmp                   0      0.00%     44.00% # Type of FU issued
system.cpu0.iq.FU_type_0::SimdCvt                   0      0.00%     44.00% # Type of FU issued
system.cpu0.iq.FU_type_0::SimdMisc                  0      0.00%     44.00% # Type of FU issued
system.cpu0.iq.FU_type_0::SimdMult                  0      0.00%     44.00% # Type of FU issued
system.cpu0.iq.FU_type_0::SimdMultAcc               0      0.00%     44.00% # Type of FU issued
system.cpu0.iq.FU_type_0::SimdShift                 0      0.00%     44.00% # Type of FU issued
system.cpu0.iq.FU_type_0::SimdShiftAcc              0      0.00%     44.00% # Type of FU issued
system.cpu0.iq.FU_type_0::SimdSqrt                  0      0.00%     44.00% # Type of FU issued
system.cpu0.iq.FU_type_0::SimdFloatAdd              0      0.00%     44.00% # Type of FU issued
system.cpu0.iq.FU_type_0::SimdFloatAlu              0      0.00%     44.00% # Type of FU issued
system.cpu0.iq.FU_type_0::SimdFloatCmp              0      0.00%     44.00% # Type of FU issued
system.cpu0.iq.FU_type_0::SimdFloatCvt              0      0.00%     44.00% # Type of FU issued
system.cpu0.iq.FU_type_0::SimdFloatDiv              0      0.00%     44.00% # Type of FU issued
system.cpu0.iq.FU_type_0::SimdFloatMisc             3      0.00%     44.01% # Type of FU issued
system.cpu0.iq.FU_type_0::SimdFloatMult             0      0.00%     44.01% # Type of FU issued
system.cpu0.iq.FU_type_0::SimdFloatMultAcc            0      0.00%     44.01% # Type of FU issued
system.cpu0.iq.FU_type_0::SimdFloatSqrt             0      0.00%     44.01% # Type of FU issued
system.cpu0.iq.FU_type_0::MemRead               27537     35.26%     79.27% # Type of FU issued
system.cpu0.iq.FU_type_0::MemWrite              16191     20.73%    100.00% # Type of FU issued
system.cpu0.iq.FU_type_0::IprAccess                 0      0.00%    100.00% # Type of FU issued
system.cpu0.iq.FU_type_0::InstPrefetch              0      0.00%    100.00% # Type of FU issued
system.cpu0.iq.FU_type_0::total                 78093                       # Type of FU issued
system.cpu0.iq.rate                          1.495519                       # Inst issue rate
system.cpu0.iq.fu_busy_cnt                          0                       # FU busy when requested
system.cpu0.iq.fu_busy_rate                         0                       # FU busy rate (busy events/executed inst)
system.cpu0.iq.int_inst_queue_reads            200957                       # Number of integer instruction queue reads
system.cpu0.iq.int_inst_queue_writes            84740                       # Number of integer instruction queue writes
system.cpu0.iq.int_inst_queue_wakeup_accesses        77049                       # Number of integer instruction queue wakeup accesses
system.cpu0.iq.fp_inst_queue_reads                 32                       # Number of floating instruction queue reads
system.cpu0.iq.fp_inst_queue_writes                16                       # Number of floating instruction queue writes
system.cpu0.iq.fp_inst_queue_wakeup_accesses           16                       # Number of floating instruction queue wakeup accesses
system.cpu0.iq.int_alu_accesses                 78077                       # Number of integer alu accesses
system.cpu0.iq.fp_alu_accesses                     16                       # Number of floating point alu accesses
system.cpu0.iew.lsq.thread0.forwLoads           12643                       # Number of loads that had data forwarded from stores
system.cpu0.iew.lsq.thread0.invAddrLoads            0                       # Number of loads ignored due to an invalid address
system.cpu0.iew.lsq.thread0.squashedLoads         1183                       # Number of loads squashed
system.cpu0.iew.lsq.thread0.ignoredResponses            0                       # Number of memory responses ignored because the instruction is squashed
system.cpu0.iew.lsq.thread0.memOrderViolation           11                       # Number of memory ordering violations
system.cpu0.iew.lsq.thread0.squashedStores          459                       # Number of stores squashed
system.cpu0.iew.lsq.thread0.invAddrSwpfs            0                       # Number of software prefetches ignored due to an invalid address
system.cpu0.iew.lsq.thread0.blockedLoads            0                       # Number of blocked loads due to partial load-store forwarding
system.cpu0.iew.lsq.thread0.rescheduledLoads            5                       # Number of loads that were rescheduled
system.cpu0.iew.lsq.thread0.cacheBlocked            0                       # Number of times an access to memory failed due to the cache being blocked
system.cpu0.iew.iewIdleCycles                       0                       # Number of cycles IEW is idle
system.cpu0.iew.iewSquashCycles                   543                       # Number of cycles IEW is squashing
system.cpu0.iew.iewBlockCycles                    378                       # Number of cycles IEW is blocking
system.cpu0.iew.iewUnblockCycles                  128                       # Number of cycles IEW is unblocking
system.cpu0.iew.iewDispatchedInsts              79944                       # Number of instructions dispatched to IQ
system.cpu0.iew.iewDispSquashedInsts              362                       # Number of squashed instructions skipped by dispatch
system.cpu0.iew.iewDispLoadInsts                27806                       # Number of dispatched load instructions
system.cpu0.iew.iewDispStoreInsts               16431                       # Number of dispatched store instructions
system.cpu0.iew.iewDispNonSpecInsts                39                       # Number of dispatched non-speculative instructions
system.cpu0.iew.iewIQFullEvents                     2                       # Number of times the IQ has become full, causing a stall
system.cpu0.iew.iewLSQFullEvents                    4                       # Number of times the LSQ has become full, causing a stall
system.cpu0.iew.memOrderViolationEvents            11                       # Number of memory order violations
system.cpu0.iew.predictedTakenIncorrect            71                       # Number of branches that were predicted taken incorrectly
system.cpu0.iew.predictedNotTakenIncorrect          470                       # Number of branches that were predicted not taken incorrectly
system.cpu0.iew.branchMispredicts                 541                       # Number of branch mispredicts detected at execute
system.cpu0.iew.iewExecutedInsts                77466                       # Number of executed instructions
system.cpu0.iew.iewExecLoadInsts                27341                       # Number of load instructions executed
system.cpu0.iew.iewExecSquashedInsts              624                       # Number of squashed instructions skipped in execute
system.cpu0.iew.exec_swp                            0                       # number of swp insts executed
system.cpu0.iew.exec_nop                           19                       # number of nop insts executed
system.cpu0.iew.exec_refs                       43464                       # number of memory reference insts executed
system.cpu0.iew.exec_branches                   14511                       # Number of branches executed
system.cpu0.iew.exec_stores                     16123                       # Number of stores executed
system.cpu0.iew.exec_rate                    1.483511                       # Inst execution rate
system.cpu0.iew.wb_sent                         77163                       # cumulative count of insts sent to commit
system.cpu0.iew.wb_count                        77065                       # cumulative count of insts written-back
system.cpu0.iew.wb_producers                    44119                       # num instructions producing a value
system.cpu0.iew.wb_consumers                    54542                       # num instructions consuming a value
system.cpu0.iew.wb_penalized                        0                       # number of instrctions required to write to 'other' IQ
system.cpu0.iew.wb_rate                      1.475832                       # insts written-back per cycle
system.cpu0.iew.wb_fanout                    0.808900                       # average fanout of values written-back
system.cpu0.iew.wb_penalized_rate                   0                       # fraction of instructions written-back that wrote to 'other' IQ
system.cpu0.commit.commitSquashedInsts           4839                       # The number of squashed insts skipped by commit
system.cpu0.commit.commitNonSpecStalls             60                       # The number of times commit has been forced to stall to communicate backwards
system.cpu0.commit.branchMispredicts              520                       # The number of times a branch was mispredicted
system.cpu0.commit.committed_per_cycle::samples        43750                       # Number of insts commited each cycle
system.cpu0.commit.committed_per_cycle::mean     1.716206                       # Number of insts commited each cycle
system.cpu0.commit.committed_per_cycle::stdev     1.708783                       # Number of insts commited each cycle
system.cpu0.commit.committed_per_cycle::underflows            0      0.00%      0.00% # Number of insts commited each cycle
system.cpu0.commit.committed_per_cycle::0        12910     29.51%     29.51% # Number of insts commited each cycle
system.cpu0.commit.committed_per_cycle::1        15003     34.29%     63.80% # Number of insts commited each cycle
system.cpu0.commit.committed_per_cycle::2         1122      2.56%     66.37% # Number of insts commited each cycle
system.cpu0.commit.committed_per_cycle::3         4805     10.98%     77.35% # Number of insts commited each cycle
system.cpu0.commit.committed_per_cycle::4         6494     14.84%     92.19% # Number of insts commited each cycle
system.cpu0.commit.committed_per_cycle::5         3237      7.40%     99.59% # Number of insts commited each cycle
system.cpu0.commit.committed_per_cycle::6           74      0.17%     99.76% # Number of insts commited each cycle
system.cpu0.commit.committed_per_cycle::7           23      0.05%     99.81% # Number of insts commited each cycle
system.cpu0.commit.committed_per_cycle::8           82      0.19%    100.00% # Number of insts commited each cycle
system.cpu0.commit.committed_per_cycle::overflows            0      0.00%    100.00% # Number of insts commited each cycle
system.cpu0.commit.committed_per_cycle::min_value            0                       # Number of insts commited each cycle
system.cpu0.commit.committed_per_cycle::max_value            8                       # Number of insts commited each cycle
system.cpu0.commit.committed_per_cycle::total        43750                       # Number of insts commited each cycle
system.cpu0.commit.committedInsts               71848                       # Number of instructions committed
system.cpu0.commit.committedOps                 75084                       # Number of ops (including micro ops) committed
system.cpu0.commit.swp_count                        0                       # Number of s/w prefetches committed
system.cpu0.commit.refs                         42583                       # Number of memory references committed
system.cpu0.commit.loads                        26615                       # Number of loads committed
system.cpu0.commit.membars                         24                       # Number of memory barriers committed
system.cpu0.commit.branches                     14162                       # Number of branches committed
system.cpu0.commit.fp_insts                        16                       # Number of committed floating point instructions.
system.cpu0.commit.int_insts                    61265                       # Number of committed integer instructions.
system.cpu0.commit.function_calls                 132                       # Number of function calls committed.
system.cpu0.commit.op_class_0::No_OpClass            0      0.00%      0.00% # Class of committed instruction
system.cpu0.commit.op_class_0::IntAlu           32492     43.27%     43.27% # Class of committed instruction
system.cpu0.commit.op_class_0::IntMult              6      0.01%     43.28% # Class of committed instruction
system.cpu0.commit.op_class_0::IntDiv               0      0.00%     43.28% # Class of committed instruction
system.cpu0.commit.op_class_0::FloatAdd             0      0.00%     43.28% # Class of committed instruction
system.cpu0.commit.op_class_0::FloatCmp             0      0.00%     43.28% # Class of committed instruction
system.cpu0.commit.op_class_0::FloatCvt             0      0.00%     43.28% # Class of committed instruction
system.cpu0.commit.op_class_0::FloatMult            0      0.00%     43.28% # Class of committed instruction
system.cpu0.commit.op_class_0::FloatDiv             0      0.00%     43.28% # Class of committed instruction
system.cpu0.commit.op_class_0::FloatSqrt            0      0.00%     43.28% # Class of committed instruction
system.cpu0.commit.op_class_0::SimdAdd              0      0.00%     43.28% # Class of committed instruction
system.cpu0.commit.op_class_0::SimdAddAcc            0      0.00%     43.28% # Class of committed instruction
system.cpu0.commit.op_class_0::SimdAlu              0      0.00%     43.28% # Class of committed instruction
system.cpu0.commit.op_class_0::SimdCmp              0      0.00%     43.28% # Class of committed instruction
system.cpu0.commit.op_class_0::SimdCvt              0      0.00%     43.28% # Class of committed instruction
system.cpu0.commit.op_class_0::SimdMisc             0      0.00%     43.28% # Class of committed instruction
system.cpu0.commit.op_class_0::SimdMult             0      0.00%     43.28% # Class of committed instruction
system.cpu0.commit.op_class_0::SimdMultAcc            0      0.00%     43.28% # Class of committed instruction
system.cpu0.commit.op_class_0::SimdShift            0      0.00%     43.28% # Class of committed instruction
system.cpu0.commit.op_class_0::SimdShiftAcc            0      0.00%     43.28% # Class of committed instruction
system.cpu0.commit.op_class_0::SimdSqrt             0      0.00%     43.28% # Class of committed instruction
system.cpu0.commit.op_class_0::SimdFloatAdd            0      0.00%     43.28% # Class of committed instruction
system.cpu0.commit.op_class_0::SimdFloatAlu            0      0.00%     43.28% # Class of committed instruction
system.cpu0.commit.op_class_0::SimdFloatCmp            0      0.00%     43.28% # Class of committed instruction
system.cpu0.commit.op_class_0::SimdFloatCvt            0      0.00%     43.28% # Class of committed instruction
system.cpu0.commit.op_class_0::SimdFloatDiv            0      0.00%     43.28% # Class of committed instruction
system.cpu0.commit.op_class_0::SimdFloatMisc            3      0.00%     43.29% # Class of committed instruction
system.cpu0.commit.op_class_0::SimdFloatMult            0      0.00%     43.29% # Class of committed instruction
system.cpu0.commit.op_class_0::SimdFloatMultAcc            0      0.00%     43.29% # Class of committed instruction
system.cpu0.commit.op_class_0::SimdFloatSqrt            0      0.00%     43.29% # Class of committed instruction
system.cpu0.commit.op_class_0::MemRead          26615     35.45%     78.73% # Class of committed instruction
system.cpu0.commit.op_class_0::MemWrite         15968     21.27%    100.00% # Class of committed instruction
system.cpu0.commit.op_class_0::IprAccess            0      0.00%    100.00% # Class of committed instruction
system.cpu0.commit.op_class_0::InstPrefetch            0      0.00%    100.00% # Class of committed instruction
system.cpu0.commit.op_class_0::total            75084                       # Class of committed instruction
system.cpu0.commit.bw_lim_events                   82                       # number cycles where commit BW limit reached
system.cpu0.rob.rob_reads                      123434                       # The number of ROB reads
system.cpu0.rob.rob_writes                     160775                       # The number of ROB writes
system.cpu0.timesIdled                            222                       # Number of times that the entire CPU went into an idle state and unscheduled itself
system.cpu0.idleCycles                           7566                       # Total number of cycles that the CPU has spent unscheduled due to idling
system.cpu0.committedInsts                      71848                       # Number of Instructions Simulated
system.cpu0.committedOps                        75084                       # Number of Ops (including micro ops) Simulated
system.cpu0.cpi                              0.726784                       # CPI: Cycles Per Instruction
system.cpu0.cpi_total                        0.726784                       # CPI: Total CPI of All Threads
system.cpu0.ipc                              1.375924                       # IPC: Instructions Per Cycle
system.cpu0.ipc_total                        1.375924                       # IPC: Total IPC of All Threads
system.cpu0.int_regfile_reads                   80094                       # number of integer regfile reads
system.cpu0.int_regfile_writes                  33165                       # number of integer regfile writes
system.cpu0.fp_regfile_reads                      336                       # number of floating regfile reads
system.cpu0.cc_regfile_reads                   313143                       # number of cc regfile reads
system.cpu0.cc_regfile_writes                   45060                       # number of cc regfile writes
system.cpu0.misc_regfile_reads                  43754                       # number of misc regfile reads
system.cpu0.misc_regfile_writes                    48                       # number of misc regfile writes
system.cpu0.dcache.tags.replacements               26                       # number of replacements
system.cpu0.dcache.tags.tagsinuse          198.290414                       # Cycle average of tags in use
system.cpu0.dcache.tags.total_refs              27791                       # Total number of references to valid blocks.
system.cpu0.dcache.tags.sampled_refs              272                       # Sample count of references to valid blocks.
system.cpu0.dcache.tags.avg_refs           102.172794                       # Average number of references to valid blocks.
system.cpu0.dcache.tags.warmup_cycle                0                       # Cycle when the warmup percentage was hit.
system.cpu0.dcache.tags.occ_blocks::cpu0.data   198.290414                       # Average occupied blocks per requestor
system.cpu0.dcache.tags.occ_percent::cpu0.data     0.387286                       # Average percentage of cache occupancy
system.cpu0.dcache.tags.occ_percent::total     0.387286                       # Average percentage of cache occupancy
system.cpu0.dcache.tags.occ_task_id_blocks::1024          246                       # Occupied blocks per task id
system.cpu0.dcache.tags.age_task_id_blocks_1024::1          246                       # Occupied blocks per task id
system.cpu0.dcache.tags.occ_task_id_percent::1024     0.480469                       # Percentage of cache occupancy per task id
system.cpu0.dcache.tags.tag_accesses            61196                       # Number of tag accesses
system.cpu0.dcache.tags.data_accesses           61196                       # Number of data accesses
system.cpu0.dcache.ReadReq_hits::cpu0.data        14342                       # number of ReadReq hits
system.cpu0.dcache.ReadReq_hits::total          14342                       # number of ReadReq hits
system.cpu0.dcache.WriteReq_hits::cpu0.data        13548                       # number of WriteReq hits
system.cpu0.dcache.WriteReq_hits::total         13548                       # number of WriteReq hits
system.cpu0.dcache.LoadLockedReq_hits::cpu0.data           20                       # number of LoadLockedReq hits
system.cpu0.dcache.LoadLockedReq_hits::total           20                       # number of LoadLockedReq hits
system.cpu0.dcache.StoreCondReq_hits::cpu0.data           23                       # number of StoreCondReq hits
system.cpu0.dcache.StoreCondReq_hits::total           23                       # number of StoreCondReq hits
system.cpu0.dcache.demand_hits::cpu0.data        27890                       # number of demand (read+write) hits
system.cpu0.dcache.demand_hits::total           27890                       # number of demand (read+write) hits
system.cpu0.dcache.overall_hits::cpu0.data        27890                       # number of overall hits
system.cpu0.dcache.overall_hits::total          27890                       # number of overall hits
system.cpu0.dcache.ReadReq_misses::cpu0.data          164                       # number of ReadReq misses
system.cpu0.dcache.ReadReq_misses::total          164                       # number of ReadReq misses
system.cpu0.dcache.WriteReq_misses::cpu0.data         2353                       # number of WriteReq misses
system.cpu0.dcache.WriteReq_misses::total         2353                       # number of WriteReq misses
system.cpu0.dcache.LoadLockedReq_misses::cpu0.data            3                       # number of LoadLockedReq misses
system.cpu0.dcache.LoadLockedReq_misses::total            3                       # number of LoadLockedReq misses
system.cpu0.dcache.demand_misses::cpu0.data         2517                       # number of demand (read+write) misses
system.cpu0.dcache.demand_misses::total          2517                       # number of demand (read+write) misses
system.cpu0.dcache.overall_misses::cpu0.data         2517                       # number of overall misses
system.cpu0.dcache.overall_misses::total         2517                       # number of overall misses
system.cpu0.dcache.ReadReq_miss_latency::cpu0.data      7857990                       # number of ReadReq miss cycles
system.cpu0.dcache.ReadReq_miss_latency::total      7857990                       # number of ReadReq miss cycles
system.cpu0.dcache.WriteReq_miss_latency::cpu0.data    114870500                       # number of WriteReq miss cycles
system.cpu0.dcache.WriteReq_miss_latency::total    114870500                       # number of WriteReq miss cycles
system.cpu0.dcache.LoadLockedReq_miss_latency::cpu0.data       133500                       # number of LoadLockedReq miss cycles
system.cpu0.dcache.LoadLockedReq_miss_latency::total       133500                       # number of LoadLockedReq miss cycles
system.cpu0.dcache.demand_miss_latency::cpu0.data    122728490                       # number of demand (read+write) miss cycles
system.cpu0.dcache.demand_miss_latency::total    122728490                       # number of demand (read+write) miss cycles
system.cpu0.dcache.overall_miss_latency::cpu0.data    122728490                       # number of overall miss cycles
system.cpu0.dcache.overall_miss_latency::total    122728490                       # number of overall miss cycles
system.cpu0.dcache.ReadReq_accesses::cpu0.data        14506                       # number of ReadReq accesses(hits+misses)
system.cpu0.dcache.ReadReq_accesses::total        14506                       # number of ReadReq accesses(hits+misses)
system.cpu0.dcache.WriteReq_accesses::cpu0.data        15901                       # number of WriteReq accesses(hits+misses)
system.cpu0.dcache.WriteReq_accesses::total        15901                       # number of WriteReq accesses(hits+misses)
system.cpu0.dcache.LoadLockedReq_accesses::cpu0.data           23                       # number of LoadLockedReq accesses(hits+misses)
system.cpu0.dcache.LoadLockedReq_accesses::total           23                       # number of LoadLockedReq accesses(hits+misses)
system.cpu0.dcache.StoreCondReq_accesses::cpu0.data           23                       # number of StoreCondReq accesses(hits+misses)
system.cpu0.dcache.StoreCondReq_accesses::total           23                       # number of StoreCondReq accesses(hits+misses)
system.cpu0.dcache.demand_accesses::cpu0.data        30407                       # number of demand (read+write) accesses
system.cpu0.dcache.demand_accesses::total        30407                       # number of demand (read+write) accesses
system.cpu0.dcache.overall_accesses::cpu0.data        30407                       # number of overall (read+write) accesses
system.cpu0.dcache.overall_accesses::total        30407                       # number of overall (read+write) accesses
system.cpu0.dcache.ReadReq_miss_rate::cpu0.data     0.011306                       # miss rate for ReadReq accesses
system.cpu0.dcache.ReadReq_miss_rate::total     0.011306                       # miss rate for ReadReq accesses
system.cpu0.dcache.WriteReq_miss_rate::cpu0.data     0.147978                       # miss rate for WriteReq accesses
system.cpu0.dcache.WriteReq_miss_rate::total     0.147978                       # miss rate for WriteReq accesses
system.cpu0.dcache.LoadLockedReq_miss_rate::cpu0.data     0.130435                       # miss rate for LoadLockedReq accesses
system.cpu0.dcache.LoadLockedReq_miss_rate::total     0.130435                       # miss rate for LoadLockedReq accesses
system.cpu0.dcache.demand_miss_rate::cpu0.data     0.082777                       # miss rate for demand accesses
system.cpu0.dcache.demand_miss_rate::total     0.082777                       # miss rate for demand accesses
system.cpu0.dcache.overall_miss_rate::cpu0.data     0.082777                       # miss rate for overall accesses
system.cpu0.dcache.overall_miss_rate::total     0.082777                       # miss rate for overall accesses
system.cpu0.dcache.ReadReq_avg_miss_latency::cpu0.data 47914.573171                       # average ReadReq miss latency
system.cpu0.dcache.ReadReq_avg_miss_latency::total 47914.573171                       # average ReadReq miss latency
system.cpu0.dcache.WriteReq_avg_miss_latency::cpu0.data 48818.742031                       # average WriteReq miss latency
system.cpu0.dcache.WriteReq_avg_miss_latency::total 48818.742031                       # average WriteReq miss latency
system.cpu0.dcache.LoadLockedReq_avg_miss_latency::cpu0.data        44500                       # average LoadLockedReq miss latency
system.cpu0.dcache.LoadLockedReq_avg_miss_latency::total        44500                       # average LoadLockedReq miss latency
system.cpu0.dcache.demand_avg_miss_latency::cpu0.data 48759.829162                       # average overall miss latency
system.cpu0.dcache.demand_avg_miss_latency::total 48759.829162                       # average overall miss latency
system.cpu0.dcache.overall_avg_miss_latency::cpu0.data 48759.829162                       # average overall miss latency
system.cpu0.dcache.overall_avg_miss_latency::total 48759.829162                       # average overall miss latency
system.cpu0.dcache.blocked_cycles::no_mshrs            0                       # number of cycles access was blocked
system.cpu0.dcache.blocked_cycles::no_targets            0                       # number of cycles access was blocked
system.cpu0.dcache.blocked::no_mshrs                0                       # number of cycles access was blocked
system.cpu0.dcache.blocked::no_targets              0                       # number of cycles access was blocked
system.cpu0.dcache.avg_blocked_cycles::no_mshrs          nan                       # average number of cycles each access was blocked
system.cpu0.dcache.avg_blocked_cycles::no_targets          nan                       # average number of cycles each access was blocked
system.cpu0.dcache.fast_writes                      0                       # number of fast writes performed
system.cpu0.dcache.cache_copies                     0                       # number of cache copies performed
system.cpu0.dcache.writebacks::writebacks            9                       # number of writebacks
system.cpu0.dcache.writebacks::total                9                       # number of writebacks
system.cpu0.dcache.ReadReq_mshr_hits::cpu0.data           53                       # number of ReadReq MSHR hits
system.cpu0.dcache.ReadReq_mshr_hits::total           53                       # number of ReadReq MSHR hits
system.cpu0.dcache.WriteReq_mshr_hits::cpu0.data         2174                       # number of WriteReq MSHR hits
system.cpu0.dcache.WriteReq_mshr_hits::total         2174                       # number of WriteReq MSHR hits
system.cpu0.dcache.LoadLockedReq_mshr_hits::cpu0.data            3                       # number of LoadLockedReq MSHR hits
system.cpu0.dcache.LoadLockedReq_mshr_hits::total            3                       # number of LoadLockedReq MSHR hits
system.cpu0.dcache.demand_mshr_hits::cpu0.data         2227                       # number of demand (read+write) MSHR hits
system.cpu0.dcache.demand_mshr_hits::total         2227                       # number of demand (read+write) MSHR hits
system.cpu0.dcache.overall_mshr_hits::cpu0.data         2227                       # number of overall MSHR hits
system.cpu0.dcache.overall_mshr_hits::total         2227                       # number of overall MSHR hits
system.cpu0.dcache.ReadReq_mshr_misses::cpu0.data          111                       # number of ReadReq MSHR misses
system.cpu0.dcache.ReadReq_mshr_misses::total          111                       # number of ReadReq MSHR misses
system.cpu0.dcache.WriteReq_mshr_misses::cpu0.data          179                       # number of WriteReq MSHR misses
system.cpu0.dcache.WriteReq_mshr_misses::total          179                       # number of WriteReq MSHR misses
system.cpu0.dcache.demand_mshr_misses::cpu0.data          290                       # number of demand (read+write) MSHR misses
system.cpu0.dcache.demand_mshr_misses::total          290                       # number of demand (read+write) MSHR misses
system.cpu0.dcache.overall_mshr_misses::cpu0.data          290                       # number of overall MSHR misses
system.cpu0.dcache.overall_mshr_misses::total          290                       # number of overall MSHR misses
system.cpu0.dcache.ReadReq_mshr_miss_latency::cpu0.data      5258006                       # number of ReadReq MSHR miss cycles
system.cpu0.dcache.ReadReq_mshr_miss_latency::total      5258006                       # number of ReadReq MSHR miss cycles
system.cpu0.dcache.WriteReq_mshr_miss_latency::cpu0.data      9890000                       # number of WriteReq MSHR miss cycles
system.cpu0.dcache.WriteReq_mshr_miss_latency::total      9890000                       # number of WriteReq MSHR miss cycles
system.cpu0.dcache.demand_mshr_miss_latency::cpu0.data     15148006                       # number of demand (read+write) MSHR miss cycles
system.cpu0.dcache.demand_mshr_miss_latency::total     15148006                       # number of demand (read+write) MSHR miss cycles
system.cpu0.dcache.overall_mshr_miss_latency::cpu0.data     15148006                       # number of overall MSHR miss cycles
system.cpu0.dcache.overall_mshr_miss_latency::total     15148006                       # number of overall MSHR miss cycles
system.cpu0.dcache.ReadReq_mshr_miss_rate::cpu0.data     0.007652                       # mshr miss rate for ReadReq accesses
system.cpu0.dcache.ReadReq_mshr_miss_rate::total     0.007652                       # mshr miss rate for ReadReq accesses
system.cpu0.dcache.WriteReq_mshr_miss_rate::cpu0.data     0.011257                       # mshr miss rate for WriteReq accesses
system.cpu0.dcache.WriteReq_mshr_miss_rate::total     0.011257                       # mshr miss rate for WriteReq accesses
system.cpu0.dcache.demand_mshr_miss_rate::cpu0.data     0.009537                       # mshr miss rate for demand accesses
system.cpu0.dcache.demand_mshr_miss_rate::total     0.009537                       # mshr miss rate for demand accesses
system.cpu0.dcache.overall_mshr_miss_rate::cpu0.data     0.009537                       # mshr miss rate for overall accesses
system.cpu0.dcache.overall_mshr_miss_rate::total     0.009537                       # mshr miss rate for overall accesses
system.cpu0.dcache.ReadReq_avg_mshr_miss_latency::cpu0.data 47369.423423                       # average ReadReq mshr miss latency
system.cpu0.dcache.ReadReq_avg_mshr_miss_latency::total 47369.423423                       # average ReadReq mshr miss latency
system.cpu0.dcache.WriteReq_avg_mshr_miss_latency::cpu0.data 55251.396648                       # average WriteReq mshr miss latency
system.cpu0.dcache.WriteReq_avg_mshr_miss_latency::total 55251.396648                       # average WriteReq mshr miss latency
system.cpu0.dcache.demand_avg_mshr_miss_latency::cpu0.data 52234.503448                       # average overall mshr miss latency
system.cpu0.dcache.demand_avg_mshr_miss_latency::total 52234.503448                       # average overall mshr miss latency
system.cpu0.dcache.overall_avg_mshr_miss_latency::cpu0.data 52234.503448                       # average overall mshr miss latency
system.cpu0.dcache.overall_avg_mshr_miss_latency::total 52234.503448                       # average overall mshr miss latency
system.cpu0.dcache.no_allocate_misses               0                       # Number of misses that were no-allocate
system.cpu0.icache.tags.replacements               55                       # number of replacements
system.cpu0.icache.tags.tagsinuse          225.757963                       # Cycle average of tags in use
system.cpu0.icache.tags.total_refs               1717                       # Total number of references to valid blocks.
system.cpu0.icache.tags.sampled_refs              343                       # Sample count of references to valid blocks.
system.cpu0.icache.tags.avg_refs             5.005831                       # Average number of references to valid blocks.
system.cpu0.icache.tags.warmup_cycle                0                       # Cycle when the warmup percentage was hit.
system.cpu0.icache.tags.occ_blocks::cpu0.inst   225.757963                       # Average occupied blocks per requestor
system.cpu0.icache.tags.occ_percent::cpu0.inst     0.440934                       # Average percentage of cache occupancy
system.cpu0.icache.tags.occ_percent::total     0.440934                       # Average percentage of cache occupancy
system.cpu0.icache.tags.occ_task_id_blocks::1024          288                       # Occupied blocks per task id
system.cpu0.icache.tags.age_task_id_blocks_1024::1          288                       # Occupied blocks per task id
system.cpu0.icache.tags.occ_task_id_percent::1024     0.562500                       # Percentage of cache occupancy per task id
system.cpu0.icache.tags.tag_accesses             4585                       # Number of tag accesses
system.cpu0.icache.tags.data_accesses            4585                       # Number of data accesses
system.cpu0.icache.ReadReq_hits::cpu0.inst         1717                       # number of ReadReq hits
system.cpu0.icache.ReadReq_hits::total           1717                       # number of ReadReq hits
system.cpu0.icache.demand_hits::cpu0.inst         1717                       # number of demand (read+write) hits
system.cpu0.icache.demand_hits::total            1717                       # number of demand (read+write) hits
system.cpu0.icache.overall_hits::cpu0.inst         1717                       # number of overall hits
system.cpu0.icache.overall_hits::total           1717                       # number of overall hits
system.cpu0.icache.ReadReq_misses::cpu0.inst          404                       # number of ReadReq misses
system.cpu0.icache.ReadReq_misses::total          404                       # number of ReadReq misses
system.cpu0.icache.demand_misses::cpu0.inst          404                       # number of demand (read+write) misses
system.cpu0.icache.demand_misses::total           404                       # number of demand (read+write) misses
system.cpu0.icache.overall_misses::cpu0.inst          404                       # number of overall misses
system.cpu0.icache.overall_misses::total          404                       # number of overall misses
system.cpu0.icache.ReadReq_miss_latency::cpu0.inst     21273998                       # number of ReadReq miss cycles
system.cpu0.icache.ReadReq_miss_latency::total     21273998                       # number of ReadReq miss cycles
system.cpu0.icache.demand_miss_latency::cpu0.inst     21273998                       # number of demand (read+write) miss cycles
system.cpu0.icache.demand_miss_latency::total     21273998                       # number of demand (read+write) miss cycles
system.cpu0.icache.overall_miss_latency::cpu0.inst     21273998                       # number of overall miss cycles
system.cpu0.icache.overall_miss_latency::total     21273998                       # number of overall miss cycles
system.cpu0.icache.ReadReq_accesses::cpu0.inst         2121                       # number of ReadReq accesses(hits+misses)
system.cpu0.icache.ReadReq_accesses::total         2121                       # number of ReadReq accesses(hits+misses)
system.cpu0.icache.demand_accesses::cpu0.inst         2121                       # number of demand (read+write) accesses
system.cpu0.icache.demand_accesses::total         2121                       # number of demand (read+write) accesses
system.cpu0.icache.overall_accesses::cpu0.inst         2121                       # number of overall (read+write) accesses
system.cpu0.icache.overall_accesses::total         2121                       # number of overall (read+write) accesses
system.cpu0.icache.ReadReq_miss_rate::cpu0.inst     0.190476                       # miss rate for ReadReq accesses
system.cpu0.icache.ReadReq_miss_rate::total     0.190476                       # miss rate for ReadReq accesses
system.cpu0.icache.demand_miss_rate::cpu0.inst     0.190476                       # miss rate for demand accesses
system.cpu0.icache.demand_miss_rate::total     0.190476                       # miss rate for demand accesses
system.cpu0.icache.overall_miss_rate::cpu0.inst     0.190476                       # miss rate for overall accesses
system.cpu0.icache.overall_miss_rate::total     0.190476                       # miss rate for overall accesses
system.cpu0.icache.ReadReq_avg_miss_latency::cpu0.inst 52658.410891                       # average ReadReq miss latency
system.cpu0.icache.ReadReq_avg_miss_latency::total 52658.410891                       # average ReadReq miss latency
system.cpu0.icache.demand_avg_miss_latency::cpu0.inst 52658.410891                       # average overall miss latency
system.cpu0.icache.demand_avg_miss_latency::total 52658.410891                       # average overall miss latency
system.cpu0.icache.overall_avg_miss_latency::cpu0.inst 52658.410891                       # average overall miss latency
system.cpu0.icache.overall_avg_miss_latency::total 52658.410891                       # average overall miss latency
system.cpu0.icache.blocked_cycles::no_mshrs           11                       # number of cycles access was blocked
system.cpu0.icache.blocked_cycles::no_targets            0                       # number of cycles access was blocked
system.cpu0.icache.blocked::no_mshrs                1                       # number of cycles access was blocked
system.cpu0.icache.blocked::no_targets              0                       # number of cycles access was blocked
system.cpu0.icache.avg_blocked_cycles::no_mshrs           11                       # average number of cycles each access was blocked
system.cpu0.icache.avg_blocked_cycles::no_targets          nan                       # average number of cycles each access was blocked
system.cpu0.icache.fast_writes                      0                       # number of fast writes performed
system.cpu0.icache.cache_copies                     0                       # number of cache copies performed
system.cpu0.icache.ReadReq_mshr_hits::cpu0.inst           61                       # number of ReadReq MSHR hits
system.cpu0.icache.ReadReq_mshr_hits::total           61                       # number of ReadReq MSHR hits
system.cpu0.icache.demand_mshr_hits::cpu0.inst           61                       # number of demand (read+write) MSHR hits
system.cpu0.icache.demand_mshr_hits::total           61                       # number of demand (read+write) MSHR hits
system.cpu0.icache.overall_mshr_hits::cpu0.inst           61                       # number of overall MSHR hits
system.cpu0.icache.overall_mshr_hits::total           61                       # number of overall MSHR hits
system.cpu0.icache.ReadReq_mshr_misses::cpu0.inst          343                       # number of ReadReq MSHR misses
system.cpu0.icache.ReadReq_mshr_misses::total          343                       # number of ReadReq MSHR misses
system.cpu0.icache.demand_mshr_misses::cpu0.inst          343                       # number of demand (read+write) MSHR misses
system.cpu0.icache.demand_mshr_misses::total          343                       # number of demand (read+write) MSHR misses
system.cpu0.icache.overall_mshr_misses::cpu0.inst          343                       # number of overall MSHR misses
system.cpu0.icache.overall_mshr_misses::total          343                       # number of overall MSHR misses
system.cpu0.icache.ReadReq_mshr_miss_latency::cpu0.inst     18294002                       # number of ReadReq MSHR miss cycles
system.cpu0.icache.ReadReq_mshr_miss_latency::total     18294002                       # number of ReadReq MSHR miss cycles
system.cpu0.icache.demand_mshr_miss_latency::cpu0.inst     18294002                       # number of demand (read+write) MSHR miss cycles
system.cpu0.icache.demand_mshr_miss_latency::total     18294002                       # number of demand (read+write) MSHR miss cycles
system.cpu0.icache.overall_mshr_miss_latency::cpu0.inst     18294002                       # number of overall MSHR miss cycles
system.cpu0.icache.overall_mshr_miss_latency::total     18294002                       # number of overall MSHR miss cycles
system.cpu0.icache.ReadReq_mshr_miss_rate::cpu0.inst     0.161716                       # mshr miss rate for ReadReq accesses
system.cpu0.icache.ReadReq_mshr_miss_rate::total     0.161716                       # mshr miss rate for ReadReq accesses
system.cpu0.icache.demand_mshr_miss_rate::cpu0.inst     0.161716                       # mshr miss rate for demand accesses
system.cpu0.icache.demand_mshr_miss_rate::total     0.161716                       # mshr miss rate for demand accesses
system.cpu0.icache.overall_mshr_miss_rate::cpu0.inst     0.161716                       # mshr miss rate for overall accesses
system.cpu0.icache.overall_mshr_miss_rate::total     0.161716                       # mshr miss rate for overall accesses
system.cpu0.icache.ReadReq_avg_mshr_miss_latency::cpu0.inst 53335.282799                       # average ReadReq mshr miss latency
system.cpu0.icache.ReadReq_avg_mshr_miss_latency::total 53335.282799                       # average ReadReq mshr miss latency
system.cpu0.icache.demand_avg_mshr_miss_latency::cpu0.inst 53335.282799                       # average overall mshr miss latency
system.cpu0.icache.demand_avg_mshr_miss_latency::total 53335.282799                       # average overall mshr miss latency
system.cpu0.icache.overall_avg_mshr_miss_latency::cpu0.inst 53335.282799                       # average overall mshr miss latency
system.cpu0.icache.overall_avg_mshr_miss_latency::total 53335.282799                       # average overall mshr miss latency
system.cpu0.icache.no_allocate_misses               0                       # Number of misses that were no-allocate
system.cpu1.branchPred.lookups                   6190                       # Number of BP lookups
system.cpu1.branchPred.condPredicted             3800                       # Number of conditional branches predicted
system.cpu1.branchPred.condIncorrect              894                       # Number of conditional branches incorrect
system.cpu1.branchPred.BTBLookups                1981                       # Number of BTB lookups
system.cpu1.branchPred.BTBHits                   1376                       # Number of BTB hits
[...]
system.l2.ReadReq_mshr_miss_latency::cpu1.data       595000                       # number of ReadReq MSHR miss cycles
system.l2.ReadReq_mshr_miss_latency::cpu2.inst      4242000                       # number of ReadReq MSHR miss cycles
system.l2.ReadReq_mshr_miss_latency::cpu2.data       431000                       # number of ReadReq MSHR miss cycles
system.l2.ReadReq_mshr_miss_latency::total     26306500                       # number of ReadReq MSHR miss cycles
system.l2.UpgradeReq_mshr_miss_latency::cpu1.data        82500                       # number of UpgradeReq MSHR miss cycles
system.l2.UpgradeReq_mshr_miss_latency::cpu2.data        81998                       # number of UpgradeReq MSHR miss cycles
system.l2.UpgradeReq_mshr_miss_latency::total       164498                       # number of UpgradeReq MSHR miss cycles
system.l2.SCUpgradeReq_mshr_miss_latency::cpu1.data        40500                       # number of SCUpgradeReq MSHR miss cycles
system.l2.SCUpgradeReq_mshr_miss_latency::total        40500                       # number of SCUpgradeReq MSHR miss cycles
system.l2.ReadExReq_mshr_miss_latency::cpu0.data      7301000                       # number of ReadExReq MSHR miss cycles
system.l2.ReadExReq_mshr_miss_latency::cpu1.data      1421500                       # number of ReadExReq MSHR miss cycles
system.l2.ReadExReq_mshr_miss_latency::cpu2.data      1495500                       # number of ReadExReq MSHR miss cycles
system.l2.ReadExReq_mshr_miss_latency::total     10218000                       # number of ReadExReq MSHR miss cycles
system.l2.demand_mshr_miss_latency::cpu0.inst     13297500                       # number of demand (read+write) MSHR miss cycles
system.l2.demand_mshr_miss_latency::cpu0.data     10803500                       # number of demand (read+write) MSHR miss cycles
system.l2.demand_mshr_miss_latency::cpu1.inst      4238500                       # number of demand (read+write) MSHR miss cycles
system.l2.demand_mshr_miss_latency::cpu1.data      2016500                       # number of demand (read+write) MSHR miss cycles
system.l2.demand_mshr_miss_latency::cpu2.inst      4242000                       # number of demand (read+write) MSHR miss cycles
system.l2.demand_mshr_miss_latency::cpu2.data      1926500                       # number of demand (read+write) MSHR miss cycles
system.l2.demand_mshr_miss_latency::total     36524500                       # number of demand (read+write) MSHR miss cycles
system.l2.overall_mshr_miss_latency::cpu0.inst     13297500                       # number of overall MSHR miss cycles
system.l2.overall_mshr_miss_latency::cpu0.data     10803500                       # number of overall MSHR miss cycles
system.l2.overall_mshr_miss_latency::cpu1.inst      4238500                       # number of overall MSHR miss cycles
system.l2.overall_mshr_miss_latency::cpu1.data      2016500                       # number of overall MSHR miss cycles
system.l2.overall_mshr_miss_latency::cpu2.inst      4242000                       # number of overall MSHR miss cycles
system.l2.overall_mshr_miss_latency::cpu2.data      1926500                       # number of overall MSHR miss cycles
system.l2.overall_mshr_miss_latency::total     36524500                       # number of overall MSHR miss cycles
system.l2.ReadReq_mshr_miss_rate::cpu0.inst     0.944606                       # mshr miss rate for ReadReq accesses
system.l2.ReadReq_mshr_miss_rate::cpu0.data     0.747748                       # mshr miss rate for ReadReq accesses
system.l2.ReadReq_mshr_miss_rate::cpu1.inst     0.336570                       # mshr miss rate for ReadReq accesses
system.l2.ReadReq_mshr_miss_rate::cpu1.data     0.350000                       # mshr miss rate for ReadReq accesses
system.l2.ReadReq_mshr_miss_rate::cpu2.inst     0.363636                       # mshr miss rate for ReadReq accesses
system.l2.ReadReq_mshr_miss_rate::cpu2.data     0.270270                       # mshr miss rate for ReadReq accesses
system.l2.ReadReq_mshr_miss_rate::total      0.567496                       # mshr miss rate for ReadReq accesses
system.l2.UpgradeReq_mshr_miss_rate::cpu1.data     0.666667                       # mshr miss rate for UpgradeReq accesses
system.l2.UpgradeReq_mshr_miss_rate::cpu2.data     0.666667                       # mshr miss rate for UpgradeReq accesses
system.l2.UpgradeReq_mshr_miss_rate::total     0.666667                       # mshr miss rate for UpgradeReq accesses
system.l2.SCUpgradeReq_mshr_miss_rate::cpu1.data     0.250000                       # mshr miss rate for SCUpgradeReq accesses
system.l2.SCUpgradeReq_mshr_miss_rate::total     0.250000                       # mshr miss rate for SCUpgradeReq accesses
system.l2.ReadExReq_mshr_miss_rate::cpu0.data            1                       # mshr miss rate for ReadExReq accesses
system.l2.ReadExReq_mshr_miss_rate::cpu1.data            1                       # mshr miss rate for ReadExReq accesses
system.l2.ReadExReq_mshr_miss_rate::cpu2.data            1                       # mshr miss rate for ReadExReq accesses
system.l2.ReadExReq_mshr_miss_rate::total            1                       # mshr miss rate for ReadExReq accesses
system.l2.demand_mshr_miss_rate::cpu0.inst     0.944606                       # mshr miss rate for demand accesses
system.l2.demand_mshr_miss_rate::cpu0.data     0.903448                       # mshr miss rate for demand accesses
system.l2.demand_mshr_miss_rate::cpu1.inst     0.336570                       # mshr miss rate for demand accesses
system.l2.demand_mshr_miss_rate::cpu1.data     0.648649                       # mshr miss rate for demand accesses
system.l2.demand_mshr_miss_rate::cpu2.inst     0.363636                       # mshr miss rate for demand accesses
system.l2.demand_mshr_miss_rate::cpu2.data     0.630137                       # mshr miss rate for demand accesses
system.l2.demand_mshr_miss_rate::total       0.645818                       # mshr miss rate for demand accesses
system.l2.overall_mshr_miss_rate::cpu0.inst     0.944606                       # mshr miss rate for overall accesses
system.l2.overall_mshr_miss_rate::cpu0.data     0.903448                       # mshr miss rate for overall accesses
system.l2.overall_mshr_miss_rate::cpu1.inst     0.336570                       # mshr miss rate for overall accesses
system.l2.overall_mshr_miss_rate::cpu1.data     0.648649                       # mshr miss rate for overall accesses
system.l2.overall_mshr_miss_rate::cpu2.inst     0.363636                       # mshr miss rate for overall accesses
system.l2.overall_mshr_miss_rate::cpu2.data     0.630137                       # mshr miss rate for overall accesses
system.l2.overall_mshr_miss_rate::total      0.645818                       # mshr miss rate for overall accesses
system.l2.ReadReq_avg_mshr_miss_latency::cpu0.inst 41041.666667                       # average ReadReq mshr miss latency
system.l2.ReadReq_avg_mshr_miss_latency::cpu0.data 42198.795181                       # average ReadReq mshr miss latency
system.l2.ReadReq_avg_mshr_miss_latency::cpu1.inst 40754.807692                       # average ReadReq mshr miss latency
system.l2.ReadReq_avg_mshr_miss_latency::cpu1.data        42500                       # average ReadReq mshr miss latency
system.l2.ReadReq_avg_mshr_miss_latency::cpu2.inst 40788.461538                       # average ReadReq mshr miss latency
system.l2.ReadReq_avg_mshr_miss_latency::cpu2.data        43100                       # average ReadReq mshr miss latency
system.l2.ReadReq_avg_mshr_miss_latency::total 41168.231612                       # average ReadReq mshr miss latency
system.l2.UpgradeReq_avg_mshr_miss_latency::cpu1.data        41250                       # average UpgradeReq mshr miss latency
system.l2.UpgradeReq_avg_mshr_miss_latency::cpu2.data        40999                       # average UpgradeReq mshr miss latency
system.l2.UpgradeReq_avg_mshr_miss_latency::total 41124.500000                       # average UpgradeReq mshr miss latency
system.l2.SCUpgradeReq_avg_mshr_miss_latency::cpu1.data        40500                       # average SCUpgradeReq mshr miss latency
system.l2.SCUpgradeReq_avg_mshr_miss_latency::total        40500                       # average SCUpgradeReq mshr miss latency
system.l2.ReadExReq_avg_mshr_miss_latency::cpu0.data 40787.709497                       # average ReadExReq mshr miss latency
system.l2.ReadExReq_avg_mshr_miss_latency::cpu1.data 41808.823529                       # average ReadExReq mshr miss latency
system.l2.ReadExReq_avg_mshr_miss_latency::cpu2.data 41541.666667                       # average ReadExReq mshr miss latency
system.l2.ReadExReq_avg_mshr_miss_latency::total 41036.144578                       # average ReadExReq mshr miss latency
system.l2.demand_avg_mshr_miss_latency::cpu0.inst 41041.666667                       # average overall mshr miss latency
system.l2.demand_avg_mshr_miss_latency::cpu0.data 41234.732824                       # average overall mshr miss latency
system.l2.demand_avg_mshr_miss_latency::cpu1.inst 40754.807692                       # average overall mshr miss latency
system.l2.demand_avg_mshr_miss_latency::cpu1.data 42010.416667                       # average overall mshr miss latency
system.l2.demand_avg_mshr_miss_latency::cpu2.inst 40788.461538                       # average overall mshr miss latency
system.l2.demand_avg_mshr_miss_latency::cpu2.data 41880.434783                       # average overall mshr miss latency
system.l2.demand_avg_mshr_miss_latency::total 41131.193694                       # average overall mshr miss latency
system.l2.overall_avg_mshr_miss_latency::cpu0.inst 41041.666667                       # average overall mshr miss latency
system.l2.overall_avg_mshr_miss_latency::cpu0.data 41234.732824                       # average overall mshr miss latency
system.l2.overall_avg_mshr_miss_latency::cpu1.inst 40754.807692                       # average overall mshr miss latency
system.l2.overall_avg_mshr_miss_latency::cpu1.data 42010.416667                       # average overall mshr miss latency
system.l2.overall_avg_mshr_miss_latency::cpu2.inst 40788.461538                       # average overall mshr miss latency
system.l2.overall_avg_mshr_miss_latency::cpu2.data 41880.434783                       # average overall mshr miss latency
system.l2.overall_avg_mshr_miss_latency::total 41131.193694                       # average overall mshr miss latency
system.l2.no_allocate_misses                        0                       # Number of misses that were no-allocate
system.membus.trans_dist::ReadReq                 639                       # Transaction distribution
system.membus.trans_dist::ReadResp                639                       # Transaction distribution
system.membus.trans_dist::UpgradeReq               32                       # Transaction distribution
system.membus.trans_dist::SCUpgradeReq             18                       # Transaction distribution
system.membus.trans_dist::UpgradeResp               5                       # Transaction distribution
system.membus.trans_dist::ReadExReq               249                       # Transaction distribution
system.membus.trans_dist::ReadExResp              249                       # Transaction distribution
system.membus.pkt_count_system.l2.mem_side::system.physmem.port         1831                       # Packet count per connected master and slave (bytes)
system.membus.pkt_count::total                   1831                       # Packet count per connected master and slave (bytes)
system.membus.pkt_size_system.l2.mem_side::system.physmem.port        56832                       # Cumulative packet size per connected master and slave (bytes)
system.membus.pkt_size::total                   56832                       # Cumulative packet size per connected master and slave (bytes)
system.membus.snoops                               45                       # Total snoops (count)
system.membus.snoop_fanout::samples              1072                       # Request fanout histogram
system.membus.snoop_fanout::mean                    0                       # Request fanout histogram
system.membus.snoop_fanout::stdev                   0                       # Request fanout histogram
system.membus.snoop_fanout::underflows              0      0.00%      0.00% # Request fanout histogram
system.membus.snoop_fanout::0                    1072    100.00%    100.00% # Request fanout histogram
system.membus.snoop_fanout::1                       0      0.00%    100.00% # Request fanout histogram
system.membus.snoop_fanout::overflows               0      0.00%    100.00% # Request fanout histogram
system.membus.snoop_fanout::min_value               0                       # Request fanout histogram
system.membus.snoop_fanout::max_value               0                       # Request fanout histogram
system.membus.snoop_fanout::total                1072                       # Request fanout histogram
system.membus.reqLayer0.occupancy             1512389                       # Layer occupancy (ticks)
system.membus.reqLayer0.utilization               2.9                       # Layer utilization (%)
system.membus.respLayer1.occupancy            4813001                       # Layer occupancy (ticks)
system.membus.respLayer1.utilization              9.2                       # Layer utilization (%)
system.tol2bus.trans_dist::ReadReq               1207                       # Transaction distribution
system.tol2bus.trans_dist::ReadResp              1207                       # Transaction distribution
system.tol2bus.trans_dist::Writeback               11                       # Transaction distribution
system.tol2bus.trans_dist::UpgradeReq              34                       # Transaction distribution
system.tol2bus.trans_dist::SCUpgradeReq            21                       # Transaction distribution
system.tol2bus.trans_dist::UpgradeResp             55                       # Transaction distribution
system.tol2bus.trans_dist::SCUpgradeFailReq            2                       # Transaction distribution
system.tol2bus.trans_dist::UpgradeFailResp            2                       # Transaction distribution
system.tol2bus.trans_dist::ReadExReq              250                       # Transaction distribution
system.tol2bus.trans_dist::ReadExResp             250                       # Transaction distribution
system.tol2bus.pkt_count_system.cpu0.icache.mem_side::system.l2.cpu_side          686                       # Packet count per connected master and slave (bytes)
system.tol2bus.pkt_count_system.cpu0.dcache.mem_side::system.l2.cpu_side          589                       # Packet count per connected master and slave (bytes)
system.tol2bus.pkt_count_system.cpu1.icache.mem_side::system.l2.cpu_side          618                       # Packet count per connected master and slave (bytes)
system.tol2bus.pkt_count_system.cpu1.dcache.mem_side::system.l2.cpu_side          225                       # Packet count per connected master and slave (bytes)
system.tol2bus.pkt_count_system.cpu2.icache.mem_side::system.l2.cpu_side          572                       # Packet count per connected master and slave (bytes)
system.tol2bus.pkt_count_system.cpu2.dcache.mem_side::system.l2.cpu_side          220                       # Packet count per connected master and slave (bytes)
system.tol2bus.pkt_count::total                  2910                       # Packet count per connected master and slave (bytes)
system.tol2bus.pkt_size_system.cpu0.icache.mem_side::system.l2.cpu_side        21952                       # Cumulative packet size per connected master and slave (bytes)
system.tol2bus.pkt_size_system.cpu0.dcache.mem_side::system.l2.cpu_side        19136                       # Cumulative packet size per connected master and slave (bytes)
system.tol2bus.pkt_size_system.cpu1.icache.mem_side::system.l2.cpu_side        19776                       # Cumulative packet size per connected master and slave (bytes)
system.tol2bus.pkt_size_system.cpu1.dcache.mem_side::system.l2.cpu_side         4800                       # Cumulative packet size per connected master and slave (bytes)
system.tol2bus.pkt_size_system.cpu2.icache.mem_side::system.l2.cpu_side        18304                       # Cumulative packet size per connected master and slave (bytes)
system.tol2bus.pkt_size_system.cpu2.dcache.mem_side::system.l2.cpu_side         4736                       # Cumulative packet size per connected master and slave (bytes)
system.tol2bus.pkt_size::total                  88704                       # Cumulative packet size per connected master and slave (bytes)
system.tol2bus.snoops                             129                       # Total snoops (count)
system.tol2bus.snoop_fanout::samples             1525                       # Request fanout histogram
system.tol2bus.snoop_fanout::mean                   5                       # Request fanout histogram
system.tol2bus.snoop_fanout::stdev                  0                       # Request fanout histogram
system.tol2bus.snoop_fanout::underflows             0      0.00%      0.00% # Request fanout histogram
system.tol2bus.snoop_fanout::0                      0      0.00%      0.00% # Request fanout histogram
system.tol2bus.snoop_fanout::1                      0      0.00%      0.00% # Request fanout histogram
system.tol2bus.snoop_fanout::2                      0      0.00%      0.00% # Request fanout histogram
system.tol2bus.snoop_fanout::3                      0      0.00%      0.00% # Request fanout histogram
system.tol2bus.snoop_fanout::4                      0      0.00%      0.00% # Request fanout histogram
system.tol2bus.snoop_fanout::5                   1525    100.00%    100.00% # Request fanout histogram
system.tol2bus.snoop_fanout::6                      0      0.00%    100.00% # Request fanout histogram
system.tol2bus.snoop_fanout::overflows              0      0.00%    100.00% # Request fanout histogram
system.tol2bus.snoop_fanout::min_value              5                       # Request fanout histogram
system.tol2bus.snoop_fanout::max_value              5                       # Request fanout histogram
system.tol2bus.snoop_fanout::total               1525                       # Request fanout histogram
system.tol2bus.reqLayer0.occupancy             773999                       # Layer occupancy (ticks)
system.tol2bus.reqLayer0.utilization              1.5                       # Layer utilization (%)
system.tol2bus.respLayer0.occupancy            515498                       # Layer occupancy (ticks)
system.tol2bus.respLayer0.utilization             1.0                       # Layer utilization (%)
system.tol2bus.respLayer1.occupancy            437994                       # Layer occupancy (ticks)
system.tol2bus.respLayer1.utilization             0.8                       # Layer utilization (%)
system.tol2bus.respLayer4.occupancy            480466                       # Layer occupancy (ticks)
system.tol2bus.respLayer4.utilization             0.9                       # Layer utilization (%)
system.tol2bus.respLayer5.occupancy            186500                       # Layer occupancy (ticks)
system.tol2bus.respLayer5.utilization             0.4                       # Layer utilization (%)
system.tol2bus.respLayer8.occupancy            454948                       # Layer occupancy (ticks)
system.tol2bus.respLayer8.utilization             0.9                       # Layer utilization (%)
system.tol2bus.respLayer9.occupancy            191991                       # Layer occupancy (ticks)
system.tol2bus.respLayer9.utilization             0.4                       # Layer utilization (%)

---------- End Simulation Statistics   ----------
