
---------- Begin Simulation Statistics ----------
sim_seconds                                  0.017086                       # Number of seconds simulated
sim_ticks                                 17085762000                       # Number of ticks simulated
final_tick                                17085762000                       # Number of ticks from beginning of simulation (restored from checkpoints and never reset)
sim_freq                                 1000000000000                       # Frequency of simulated ticks
host_inst_rate                                 178666                       # Simulator instruction rate (inst/s)
host_op_rate                                   181554                       # Simulator op (including micro ops) rate (op/s)
host_tick_rate                               19989302                       # Simulator tick rate (ticks/s)
host_mem_usage                                 742624                       # Number of bytes of host memory used
host_seconds                                   854.75                       # Real time elapsed on the host
sim_insts                                   152714139                       # Number of instructions simulated
sim_ops                                     155182063                       # Number of ops (including micro ops) simulated
system.voltage_domain.voltage                       1                       # Voltage in Volts
system.clk_domain.clock                          1000                       # Clock period in ticks
system.physmem.bytes_read::cpu0.inst            22912                       # Number of bytes read from this memory
system.physmem.bytes_read::cpu0.data            67584                       # Number of bytes read from this memory
system.physmem.bytes_read::cpu1.inst             2944                       # Number of bytes read from this memory
system.physmem.bytes_read::cpu1.data            26688                       # Number of bytes read from this memory
system.physmem.bytes_read::cpu2.inst             4480                       # Number of bytes read from this memory
system.physmem.bytes_read::cpu2.data            39040                       # Number of bytes read from this memory
system.physmem.bytes_read::cpu3.inst             2368                       # Number of bytes read from this memory
system.physmem.bytes_read::cpu3.data            40064                       # Number of bytes read from this memory
system.physmem.bytes_read::cpu4.inst             5696                       # Number of bytes read from this memory
system.physmem.bytes_read::cpu4.data            69568                       # Number of bytes read from this memory
system.physmem.bytes_read::cpu5.inst             4160                       # Number of bytes read from this memory
system.physmem.bytes_read::cpu5.data            72960                       # Number of bytes read from this memory
system.physmem.bytes_read::cpu6.inst             1152                       # Number of bytes read from this memory
system.physmem.bytes_read::cpu6.data            57536                       # Number of bytes read from this memory
system.physmem.bytes_read::cpu7.inst             1984                       # Number of bytes read from this memory
system.physmem.bytes_read::cpu7.data            39360                       # Number of bytes read from this memory
system.physmem.bytes_read::cpu8.inst             4800                       # Number of bytes read from this memory
system.physmem.bytes_read::cpu8.data            20352                       # Number of bytes read from this memory
system.physmem.bytes_read::total               483648                       # Number of bytes read from this memory
system.physmem.bytes_inst_read::cpu0.inst        22912                       # Number of instructions bytes read from this memory
system.physmem.bytes_inst_read::cpu1.inst         2944                       # Number of instructions bytes read from this memory
system.physmem.bytes_inst_read::cpu2.inst         4480                       # Number of instructions bytes read from this memory
system.physmem.bytes_inst_read::cpu3.inst         2368                       # Number of instructions bytes read from this memory
system.physmem.bytes_inst_read::cpu4.inst         5696                       # Number of instructions bytes read from this memory
system.physmem.bytes_inst_read::cpu5.inst         4160                       # Number of instructions bytes read from this memory
system.physmem.bytes_inst_read::cpu6.inst         1152                       # Number of instructions bytes read from this memory
system.physmem.bytes_inst_read::cpu7.inst         1984                       # Number of instructions bytes read from this memory
system.physmem.bytes_inst_read::cpu8.inst         4800                       # Number of instructions bytes read from this memory
system.physmem.bytes_inst_read::total           50496                       # Number of instructions bytes read from this memory
system.physmem.bytes_written::writebacks        12352                       # Number of bytes written to this memory
system.physmem.bytes_written::total             12352                       # Number of bytes written to this memory
system.physmem.num_reads::cpu0.inst               358                       # Number of read requests responded to by this memory
system.physmem.num_reads::cpu0.data              1056                       # Number of read requests responded to by this memory
system.physmem.num_reads::cpu1.inst                46                       # Number of read requests responded to by this memory
system.physmem.num_reads::cpu1.data               417                       # Number of read requests responded to by this memory
system.physmem.num_reads::cpu2.inst                70                       # Number of read requests responded to by this memory
system.physmem.num_reads::cpu2.data               610                       # Number of read requests responded to by this memory
system.physmem.num_reads::cpu3.inst                37                       # Number of read requests responded to by this memory
system.physmem.num_reads::cpu3.data               626                       # Number of read requests responded to by this memory
system.physmem.num_reads::cpu4.inst                89                       # Number of read requests responded to by this memory
system.physmem.num_reads::cpu4.data              1087                       # Number of read requests responded to by this memory
system.physmem.num_reads::cpu5.inst                65                       # Number of read requests responded to by this memory
system.physmem.num_reads::cpu5.data              1140                       # Number of read requests responded to by this memory
system.physmem.num_reads::cpu6.inst                18                       # Number of read requests responded to by this memory
system.physmem.num_reads::cpu6.data               899                       # Number of read requests responded to by this memory
system.physmem.num_reads::cpu7.inst                31                       # Number of read requests responded to by this memory
system.physmem.num_reads::cpu7.data               615                       # Number of read requests responded to by this memory
system.physmem.num_reads::cpu8.inst                75                       # Number of read requests responded to by this memory
system.physmem.num_reads::cpu8.data               318                       # Number of read requests responded to by this memory
system.physmem.num_reads::total                  7557                       # Number of read requests responded to by this memory
system.physmem.num_writes::writebacks             193                       # Number of write requests responded to by this memory
system.physmem.num_writes::total                  193                       # Number of write requests responded to by this memory
system.physmem.bw_read::cpu0.inst             1341000                       # Total read bandwidth from this memory (bytes/s)
system.physmem.bw_read::cpu0.data             3955574                       # Total read bandwidth from this memory (bytes/s)
system.physmem.bw_read::cpu1.inst              172307                       # Total read bandwidth from this memory (bytes/s)
system.physmem.bw_read::cpu1.data             1562002                       # Total read bandwidth from this memory (bytes/s)
system.physmem.bw_read::cpu2.inst              262207                       # Total read bandwidth from this memory (bytes/s)
system.physmem.bw_read::cpu2.data             2284943                       # Total read bandwidth from this memory (bytes/s)
system.physmem.bw_read::cpu3.inst              138595                       # Total read bandwidth from this memory (bytes/s)
system.physmem.bw_read::cpu3.data             2344876                       # Total read bandwidth from this memory (bytes/s)
system.physmem.bw_read::cpu4.inst              333377                       # Total read bandwidth from this memory (bytes/s)
system.physmem.bw_read::cpu4.data             4071694                       # Total read bandwidth from this memory (bytes/s)
system.physmem.bw_read::cpu5.inst              243478                       # Total read bandwidth from this memory (bytes/s)
system.physmem.bw_read::cpu5.data             4270222                       # Total read bandwidth from this memory (bytes/s)
system.physmem.bw_read::cpu6.inst               67425                       # Total read bandwidth from this memory (bytes/s)
system.physmem.bw_read::cpu6.data             3367482                       # Total read bandwidth from this memory (bytes/s)
system.physmem.bw_read::cpu7.inst              116120                       # Total read bandwidth from this memory (bytes/s)
system.physmem.bw_read::cpu7.data             2303672                       # Total read bandwidth from this memory (bytes/s)
system.physmem.bw_read::cpu8.inst              280936                       # Total read bandwidth from this memory (bytes/s)
system.physmem.bw_read::cpu8.data             1191167                       # Total read bandwidth from this memory (bytes/s)
system.physmem.bw_read::total                28307078                       # Total read bandwidth from this memory (bytes/s)
system.physmem.bw_inst_read::cpu0.inst        1341000                       # Instruction read bandwidth from this memory (bytes/s)
system.physmem.bw_inst_read::cpu1.inst         172307                       # Instruction read bandwidth from this memory (bytes/s)
system.physmem.bw_inst_read::cpu2.inst         262207                       # Instruction read bandwidth from this memory (bytes/s)
system.physmem.bw_inst_read::cpu3.inst         138595                       # Instruction read bandwidth from this memory (bytes/s)
system.physmem.bw_inst_read::cpu4.inst         333377                       # Instruction read bandwidth from this memory (bytes/s)
system.physmem.bw_inst_read::cpu5.inst         243478                       # Instruction read bandwidth from this memory (bytes/s)
system.physmem.bw_inst_read::cpu6.inst          67425                       # Instruction read bandwidth from this memory (bytes/s)
system.physmem.bw_inst_read::cpu7.inst         116120                       # Instruction read bandwidth from this memory (bytes/s)
system.physmem.bw_inst_read::cpu8.inst         280936                       # Instruction read bandwidth from this memory (bytes/s)
system.physmem.bw_inst_read::total            2955443                       # Instruction read bandwidth from this memory (bytes/s)
system.physmem.bw_write::writebacks            722941                       # Write bandwidth from this memory (bytes/s)
system.physmem.bw_write::total                 722941                       # Write bandwidth from this memory (bytes/s)
system.physmem.bw_total::writebacks            722941                       # Total bandwidth to/from this memory (bytes/s)
system.physmem.bw_total::cpu0.inst            1341000                       # Total bandwidth to/from this memory (bytes/s)
system.physmem.bw_total::cpu0.data            3955574                       # Total bandwidth to/from this memory (bytes/s)
system.physmem.bw_total::cpu1.inst             172307                       # Total bandwidth to/from this memory (bytes/s)
system.physmem.bw_total::cpu1.data            1562002                       # Total bandwidth to/from this memory (bytes/s)
system.physmem.bw_total::cpu2.inst             262207                       # Total bandwidth to/from this memory (bytes/s)
system.physmem.bw_total::cpu2.data            2284943                       # Total bandwidth to/from this memory (bytes/s)
system.physmem.bw_total::cpu3.inst             138595                       # Total bandwidth to/from this memory (bytes/s)
system.physmem.bw_total::cpu3.data            2344876                       # Total bandwidth to/from this memory (bytes/s)
system.physmem.bw_total::cpu4.inst             333377                       # Total bandwidth to/from this memory (bytes/s)
system.physmem.bw_total::cpu4.data            4071694                       # Total bandwidth to/from this memory (bytes/s)
system.physmem.bw_total::cpu5.inst             243478                       # Total bandwidth to/from this memory (bytes/s)
system.physmem.bw_total::cpu5.data            4270222                       # Total bandwidth to/from this memory (bytes/s)
system.physmem.bw_total::cpu6.inst              67425                       # Total bandwidth to/from this memory (bytes/s)
system.physmem.bw_total::cpu6.data            3367482                       # Total bandwidth to/from this memory (bytes/s)
system.physmem.bw_total::cpu7.inst             116120                       # Total bandwidth to/from this memory (bytes/s)
system.physmem.bw_total::cpu7.data            2303672                       # Total bandwidth to/from this memory (bytes/s)
system.physmem.bw_total::cpu8.inst             280936                       # Total bandwidth to/from this memory (bytes/s)
system.physmem.bw_total::cpu8.data            1191167                       # Total bandwidth to/from this memory (bytes/s)
system.physmem.bw_total::total               29030019                       # Total bandwidth to/from this memory (bytes/s)
system.cpu0.branchPred.lookups                8530955                       # Number of BP lookups
system.cpu0.branchPred.condPredicted          8525423                       # Number of conditional branches predicted
system.cpu0.branchPred.condIncorrect              837                       # Number of conditional branches incorrect
system.cpu0.branchPred.BTBLookups             8524136                       # Number of BTB lookups
system.cpu0.branchPred.BTBHits                8523614                       # Number of BTB hits
system.cpu0.branchPred.BTBCorrect                   0                       # Number of correct BTB predictions (this stat may not work properly.
system.cpu0.branchPred.BTBHitPct            99.993876                       # BTB Hit Percentage
system.cpu0.branchPred.usedRAS                   2562                       # Number of times the RAS was used to get a target.
system.cpu0.branchPred.RASInCorrect                63                       # Number of incorrect RAS predictions.
system.cpu0.dstage2_mmu.stage2_tlb.walker.walks            0                       # Table walker walks requested
system.cpu0.dstage2_mmu.stage2_tlb.walker.walkRequestOrigin_Requested::Data            0                       # Table walker requests started/completed, data/inst
system.cpu0.dstage2_mmu.stage2_tlb.walker.walkRequestOrigin_Requested::Inst            0                       # Table walker requests started/completed, data/inst
system.cpu0.dstage2_mmu.stage2_tlb.walker.walkRequestOrigin_Requested::total            0                       # Table walker requests started/completed, data/inst
system.cpu0.dstage2_mmu.stage2_tlb.walker.walkRequestOrigin_Completed::Data            0                       # Table walker requests started/completed, data/inst
system.cpu0.dstage2_mmu.stage2_tlb.walker.walkRequestOrigin_Completed::Inst            0                       # Table walker requests started/completed, data/inst
system.cpu0.dstage2_mmu.stage2_tlb.walker.walkRequestOrigin_Completed::total            0                       # Table walker requests started/completed, data/inst
system.cpu0.dstage2_mmu.stage2_tlb.walker.walkRequestOrigin::total            0                       # Table walker requests started/completed, data/inst
system.cpu0.dstage2_mmu.stage2_tlb.inst_hits            0                       # ITB inst hits
system.cpu0.dstage2_mmu.stage2_tlb.inst_misses            0                       # ITB inst misses
system.cpu0.dstage2_mmu.stage2_tlb.read_hits            0                       # DTB read hits
system.cpu0.dstage2_mmu.stage2_tlb.read_misses            0                       # DTB read misses
system.cpu0.dstage2_mmu.stage2_tlb.write_hits            0                       # DTB write hits
system.cpu0.dstage2_mmu.stage2_tlb.write_misses            0                       # DTB write misses
system.cpu0.dstage2_mmu.stage2_tlb.flush_tlb            0                       # Number of times complete TLB was flushed
system.cpu0.dstage2_mmu.stage2_tlb.flush_tlb_mva            0                       # Number of times TLB was flushed by MVA
system.cpu0.dstage2_mmu.stage2_tlb.flush_tlb_mva_asid            0                       # Number of times TLB was flushed by MVA & ASID
system.cpu0.dstage2_mmu.stage2_tlb.flush_tlb_asid            0                       # Number of times TLB was flushed by ASID
system.cpu0.dstage2_mmu.stage2_tlb.flush_entries            0                       # Number of entries that have been flushed from TLB
system.cpu0.dstage2_mmu.stage2_tlb.align_faults            0                       # Number of TLB faults due to alignment restrictions
system.cpu0.dstage2_mmu.stage2_tlb.prefetch_faults            0                       # Number of TLB faults due to prefetch
system.cpu0.dstage2_mmu.stage2_tlb.domain_faults            0                       # Number of TLB faults due to domain restrictions
system.cpu0.dstage2_mmu.stage2_tlb.perms_faults            0                       # Number of TLB faults due to permissions restrictions
system.cpu0.dstage2_mmu.stage2_tlb.read_accesses            0                       # DTB read accesses
system.cpu0.dstage2_mmu.stage2_tlb.write_accesses            0                       # DTB write accesses
system.cpu0.dstage2_mmu.stage2_tlb.inst_accesses            0                       # ITB inst accesses
system.cpu0.dstage2_mmu.stage2_tlb.hits             0                       # DTB hits
system.cpu0.dstage2_mmu.stage2_tlb.misses            0                       # DTB misses
system.cpu0.dstage2_mmu.stage2_tlb.accesses            0                       # DTB accesses
system.cpu0.dtb.walker.walks                        0                       # Table walker walks requested
system.cpu0.dtb.walker.walkRequestOrigin_Requested::Data            0                       # Table walker requests started/completed, data/inst
system.cpu0.dtb.walker.walkRequestOrigin_Requested::Inst            0                       # Table walker requests started/completed, data/inst
system.cpu0.dtb.walker.walkRequestOrigin_Requested::total            0                       # Table walker requests started/completed, data/inst
system.cpu0.dtb.walker.walkRequestOrigin_Completed::Data            0                       # Table walker requests started/completed, data/inst
system.cpu0.dtb.walker.walkRequestOrigin_Completed::Inst            0                       # Table walker requests started/completed, data/inst
system.cpu0.dtb.walker.walkRequestOrigin_Completed::total            0                       # Table walker requests started/completed, data/inst
system.cpu0.dtb.walker.walkRequestOrigin::total            0                       # Table walker requests started/completed, data/inst
system.cpu0.dtb.inst_hits                           0                       # ITB inst hits
system.cpu0.dtb.inst_misses                         0                       # ITB inst misses
system.cpu0.dtb.read_hits                           0                       # DTB read hits
system.cpu0.dtb.read_misses                         0                       # DTB read misses
system.cpu0.dtb.write_hits                          0                       # DTB write hits
system.cpu0.dtb.write_misses                        0                       # DTB write misses
system.cpu0.dtb.flush_tlb                           0                       # Number of times complete TLB was flushed
system.cpu0.dtb.flush_tlb_mva                       0                       # Number of times TLB was flushed by MVA
system.cpu0.dtb.flush_tlb_mva_asid                  0                       # Number of times TLB was flushed by MVA & ASID
system.cpu0.dtb.flush_tlb_asid                      0                       # Number of times TLB was flushed by ASID
system.cpu0.dtb.flush_entries                       0                       # Number of entries that have been flushed from TLB
system.cpu0.dtb.align_faults                        0                       # Number of TLB faults due to alignment restrictions
system.cpu0.dtb.prefetch_faults                     0                       # Number of TLB faults due to prefetch
system.cpu0.dtb.domain_faults                       0                       # Number of TLB faults due to domain restrictions
system.cpu0.dtb.perms_faults                        0                       # Number of TLB faults due to permissions restrictions
system.cpu0.dtb.read_accesses                       0                       # DTB read accesses
system.cpu0.dtb.write_accesses                      0                       # DTB write accesses
system.cpu0.dtb.inst_accesses                       0                       # ITB inst accesses
system.cpu0.dtb.hits                                0                       # DTB hits
system.cpu0.dtb.misses                              0                       # DTB misses
system.cpu0.dtb.accesses                            0                       # DTB accesses
system.cpu0.istage2_mmu.stage2_tlb.walker.walks            0                       # Table walker walks requested
system.cpu0.istage2_mmu.stage2_tlb.walker.walkRequestOrigin_Requested::Data            0                       # Table walker requests started/completed, data/inst
system.cpu0.istage2_mmu.stage2_tlb.walker.walkRequestOrigin_Requested::Inst            0                       # Table walker requests started/completed, data/inst
system.cpu0.istage2_mmu.stage2_tlb.walker.walkRequestOrigin_Requested::total            0                       # Table walker requests started/completed, data/inst
system.cpu0.istage2_mmu.stage2_tlb.walker.walkRequestOrigin_Completed::Data            0                       # Table walker requests started/completed, data/inst
system.cpu0.istage2_mmu.stage2_tlb.walker.walkRequestOrigin_Completed::Inst            0                       # Table walker requests started/completed, data/inst
system.cpu0.istage2_mmu.stage2_tlb.walker.walkRequestOrigin_Completed::total            0                       # Table walker requests started/completed, data/inst
system.cpu0.istage2_mmu.stage2_tlb.walker.walkRequestOrigin::total            0                       # Table walker requests started/completed, data/inst
system.cpu0.istage2_mmu.stage2_tlb.inst_hits            0                       # ITB inst hits
system.cpu0.istage2_mmu.stage2_tlb.inst_misses            0                       # ITB inst misses
system.cpu0.istage2_mmu.stage2_tlb.read_hits            0                       # DTB read hits
system.cpu0.istage2_mmu.stage2_tlb.read_misses            0                       # DTB read misses
system.cpu0.istage2_mmu.stage2_tlb.write_hits            0                       # DTB write hits
system.cpu0.istage2_mmu.stage2_tlb.write_misses            0                       # DTB write misses
system.cpu0.istage2_mmu.stage2_tlb.flush_tlb            0                       # Number of times complete TLB was flushed
system.cpu0.istage2_mmu.stage2_tlb.flush_tlb_mva            0                       # Number of times TLB was flushed by MVA
system.cpu0.istage2_mmu.stage2_tlb.flush_tlb_mva_asid            0                       # Number of times TLB was flushed by MVA & ASID
system.cpu0.istage2_mmu.stage2_tlb.flush_tlb_asid            0                       # Number of times TLB was flushed by ASID
system.cpu0.istage2_mmu.stage2_tlb.flush_entries            0                       # Number of entries that have been flushed from TLB
system.cpu0.istage2_mmu.stage2_tlb.align_faults            0                       # Number of TLB faults due to alignment restrictions
system.cpu0.istage2_mmu.stage2_tlb.prefetch_faults            0                       # Number of TLB faults due to prefetch
system.cpu0.istage2_mmu.stage2_tlb.domain_faults            0                       # Number of TLB faults due to domain restrictions
system.cpu0.istage2_mmu.stage2_tlb.perms_faults            0                       # Number of TLB faults due to permissions restrictions
system.cpu0.istage2_mmu.stage2_tlb.read_accesses            0                       # DTB read accesses
system.cpu0.istage2_mmu.stage2_tlb.write_accesses            0                       # DTB write accesses
system.cpu0.istage2_mmu.stage2_tlb.inst_accesses            0                       # ITB inst accesses
system.cpu0.istage2_mmu.stage2_tlb.hits             0                       # DTB hits
system.cpu0.istage2_mmu.stage2_tlb.misses            0                       # DTB misses
system.cpu0.istage2_mmu.stage2_tlb.accesses            0                       # DTB accesses
system.cpu0.itb.walker.walks                        0                       # Table walker walks requested
system.cpu0.itb.walker.walkRequestOrigin_Requested::Data            0                       # Table walker requests started/completed, data/inst
system.cpu0.itb.walker.walkRequestOrigin_Requested::Inst            0                       # Table walker requests started/completed, data/inst
system.cpu0.itb.walker.walkRequestOrigin_Requested::total            0                       # Table walker requests started/completed, data/inst
system.cpu0.itb.walker.walkRequestOrigin_Completed::Data            0                       # Table walker requests started/completed, data/inst
system.cpu0.itb.walker.walkRequestOrigin_Completed::Inst            0                       # Table walker requests started/completed, data/inst
system.cpu0.itb.walker.walkRequestOrigin_Completed::total            0                       # Table walker requests started/completed, data/inst
system.cpu0.itb.walker.walkRequestOrigin::total            0                       # Table walker requests started/completed, data/inst
system.cpu0.itb.inst_hits                           0                       # ITB inst hits
system.cpu0.itb.inst_misses                         0                       # ITB inst misses
system.cpu0.itb.read_hits                           0                       # DTB read hits
system.cpu0.itb.read_misses                         0                       # DTB read misses
system.cpu0.itb.write_hits                          0                       # DTB write hits
system.cpu0.itb.write_misses                        0                       # DTB write misses
system.cpu0.itb.flush_tlb                           0                       # Number of times complete TLB was flushed
system.cpu0.itb.flush_tlb_mva                       0                       # Number of times TLB was flushed by MVA
system.cpu0.itb.flush_tlb_mva_asid                  0                       # Number of times TLB was flushed by MVA & ASID
system.cpu0.itb.flush_tlb_asid                      0                       # Number of times TLB was flushed by ASID
system.cpu0.itb.flush_entries                       0                       # Number of entries that have been flushed from TLB
system.cpu0.itb.align_faults                        0                       # Number of TLB faults due to alignment restrictions
system.cpu0.itb.prefetch_faults                     0                       # Number of TLB faults due to prefetch
system.cpu0.itb.domain_faults                       0                       # Number of TLB faults due to domain restrictions
system.cpu0.itb.perms_faults                        0                       # Number of TLB faults due to permissions restrictions
system.cpu0.itb.read_accesses                       0                       # DTB read accesses
system.cpu0.itb.write_accesses                      0                       # DTB write accesses
system.cpu0.itb.inst_accesses                       0                       # ITB inst accesses
system.cpu0.itb.hits                                0                       # DTB hits
system.cpu0.itb.misses                              0                       # DTB misses
system.cpu0.itb.accesses                            0                       # DTB accesses
system.cpu0.workload.num_syscalls              120015                       # Number of system calls
system.cpu0.numCycles                        17085763                       # number of cpu cycles simulated
system.cpu0.numWorkItemsStarted                     0                       # number of work items this cpu started
system.cpu0.numWorkItemsCompleted                   0                       # number of work items this cpu completed
system.cpu0.fetch.icacheStallCycles             14271                       # Number of cycles fetch is stalled on an Icache miss
system.cpu0.fetch.Insts                      42645515                       # Number of instructions fetch has processed
system.cpu0.fetch.Branches                    8530955                       # Number of branches that fetch encountered
system.cpu0.fetch.predictedBranches           8526176                       # Number of branches that fetch has predicted taken
system.cpu0.fetch.Cycles                     17062522                       # Number of cycles fetch has run and was not squashing or blocked
system.cpu0.fetch.SquashCycles                   1811                       # Number of cycles fetch has spent squashing
system.cpu0.fetch.PendingTrapStallCycles          165                       # Number of stall cycles due to pending traps
system.cpu0.fetch.CacheLines                     7425                       # Number of cache lines fetched
system.cpu0.fetch.IcacheSquashes                  305                       # Number of outstanding Icache misses that were squashed
system.cpu0.fetch.rateDist::samples          17077863                       # Number of instructions fetched each cycle (Total)
system.cpu0.fetch.rateDist::mean             2.497452                       # Number of instructions fetched each cycle (Total)
system.cpu0.fetch.rateDist::stdev            0.506709                       # Number of instructions fetched each cycle (Total)
system.cpu0.fetch.rateDist::underflows              0      0.00%      0.00% # Number of instructions fetched each cycle (Total)
system.cpu0.fetch.rateDist::0                   18264      0.11%      0.11% # Number of instructions fetched each cycle (Total)
system.cpu0.fetch.rateDist::1                    2934      0.02%      0.12% # Number of instructions fetched each cycle (Total)
system.cpu0.fetch.rateDist::2                 8521789     49.90%     50.02% # Number of instructions fetched each cycle (Total)
system.cpu0.fetch.rateDist::3                 8534876     49.98%    100.00% # Number of instructions fetched each cycle (Total)
system.cpu0.fetch.rateDist::overflows               0      0.00%    100.00% # Number of instructions fetched each cycle (Total)
system.cpu0.fetch.rateDist::min_value               0                       # Number of instructions fetched each cycle (Total)
system.cpu0.fetch.rateDist::max_value               3                       # Number of instructions fetched each cycle (Total)
system.cpu0.fetch.rateDist::total            17077863                       # Number of instructions fetched each cycle (Total)
system.cpu0.fetch.branchRate                 0.499302                       # Number of branch fetches per cycle
system.cpu0.fetch.rate                       2.495968                       # Number of inst fetches per cycle
system.cpu0.decode.IdleCycles                   13158                       # Number of cycles decode is idle
system.cpu0.decode.BlockedCycles                 5818                       # Number of cycles decode is blocked
system.cpu0.decode.RunCycles                 17057559                       # Number of cycles decode is running
system.cpu0.decode.UnblockCycles                  629                       # Number of cycles decode is unblocking
system.cpu0.decode.SquashCycles                   699                       # Number of cycles decode is squashing
system.cpu0.decode.BranchResolved                2571                       # Number of times decode resolved a branch
system.cpu0.decode.BranchMispred                  226                       # Number of times decode detected a branch misprediction
system.cpu0.decode.DecodedInsts              42647419                       # Number of instructions handled by decode
system.cpu0.decode.SquashedInsts                  464                       # Number of squashed instructions handled by decode
system.cpu0.rename.SquashCycles                   699                       # Number of cycles rename is squashing
system.cpu0.rename.IdleCycles                   13908                       # Number of cycles rename is idle
system.cpu0.rename.BlockCycles                    631                       # Number of cycles rename is blocking
system.cpu0.rename.serializeStallCycles          2812                       # count of cycles rename stalled for serializing inst
system.cpu0.rename.RunCycles                 17057355                       # Number of cycles rename is running
system.cpu0.rename.UnblockCycles                 2458                       # Number of cycles rename is unblocking
system.cpu0.rename.RenamedInsts              42646141                       # Number of instructions processed by rename
system.cpu0.rename.IQFullEvents                     1                       # Number of times rename has blocked due to IQ full
system.cpu0.rename.SQFullEvents                  2349                       # Number of times rename has blocked due to SQ full
system.cpu0.rename.RenamedOperands           42648192                       # Number of destination operands rename has renamed
system.cpu0.rename.RenameLookups            196158376                       # Number of register rename lookups that rename has made
system.cpu0.rename.int_rename_lookups        42648072                       # Number of integer rename lookups
system.cpu0.rename.fp_rename_lookups               16                       # Number of floating rename lookups
system.cpu0.rename.CommittedMaps             42638513                       # Number of HB maps that are committed
system.cpu0.rename.UndoneMaps                    9679                       # Number of HB maps that are undone due to squashing
system.cpu0.rename.serializingInsts                69                       # count of serializing insts renamed
system.cpu0.rename.tempSerializingInsts            70                       # count of temporary serializing insts renamed
system.cpu0.rename.skidInsts                     1132                       # count of insts added to the skid buffer
system.cpu0.memDep0.insertedLoads            17042626                       # Number of loads inserted to the mem dependence unit.
system.cpu0.memDep0.insertedStores            8525000                       # Number of stores inserted to the mem dependence unit.
system.cpu0.memDep0.conflictingLoads          8518620                       # Number of conflicting loads.
system.cpu0.memDep0.conflictingStores         8518546                       # Number of conflicting stores.
system.cpu0.iq.iqInstsAdded                  42643779                       # Number of instructions added to the IQ (excludes non-spec)
system.cpu0.iq.iqNonSpecInstsAdded                 94                       # Number of non-speculative instructions added to the IQ
system.cpu0.iq.iqInstsIssued                 42641685                       # Number of instructions issued
system.cpu0.iq.iqSquashedInstsIssued              247                       # Number of squashed instructions issued
system.cpu0.iq.iqSquashedInstsExamined           6319                       # Number of squashed instructions iterated over during squash; mainly for profiling
system.cpu0.iq.iqSquashedOperandsExamined        14897                       # Number of squashed operands that are examined and possibly removed from graph
system.cpu0.iq.iqSquashedNonSpecRemoved             9                       # Number of squashed non-spec instructions that were removed
system.cpu0.iq.issued_per_cycle::samples     17077863                       # Number of insts issued each cycle
system.cpu0.iq.issued_per_cycle::mean        2.496898                       # Number of insts issued each cycle
system.cpu0.iq.issued_per_cycle::stdev       0.711618                       # Number of insts issued each cycle
system.cpu0.iq.issued_per_cycle::underflows            0      0.00%      0.00% # Number of insts issued each cycle
system.cpu0.iq.issued_per_cycle::0              17544      0.10%      0.10% # Number of insts issued each cycle
system.cpu0.iq.issued_per_cycle::1            2136839     12.51%     12.62% # Number of insts issued each cycle
system.cpu0.iq.issued_per_cycle::2            4265594     24.98%     37.59% # Number of insts issued each cycle
system.cpu0.iq.issued_per_cycle::3           10657886     62.41%    100.00% # Number of insts issued each cycle
system.cpu0.iq.issued_per_cycle::overflows            0      0.00%    100.00% # Number of insts issued each cycle
system.cpu0.iq.issued_per_cycle::min_value            0                       # Number of insts issued each cycle
system.cpu0.iq.issued_per_cycle::max_value            3                       # Number of insts issued each cycle
system.cpu0.iq.issued_per_cycle::total       17077863                       # Number of insts issued each cycle
system.cpu0.iq.fu_full::No_OpClass                  0                       # attempts to use FU when none available
system.cpu0.iq.fu_full::IntAlu                      0                       # attempts to use FU when none available
system.cpu0.iq.fu_full::IntMult                     0                       # attempts to use FU when none available
system.cpu0.iq.fu_full::IntDiv                      0                       # attempts to use FU when none available
system.cpu0.iq.fu_full::FloatAdd                    0                       # attempts to use FU when none available
system.cpu0.iq.fu_full::FloatCmp                    0                       # attempts to use FU when none available
system.cpu0.iq.fu_full::FloatCvt                    0                       # attempts to use FU when none available
system.cpu0.iq.fu_full::FloatMult                   0                       # attempts to use FU when none available
system.cpu0.iq.fu_full::FloatDiv                    0                       # attempts to use FU when none available
system.cpu0.iq.fu_full::FloatSqrt                   0                       # attempts to use FU when none available
system.cpu0.iq.fu_full::SimdAdd                     0                       # attempts to use FU when none available
system.cpu0.iq.fu_full::SimdAddAcc                  0                       # attempts to use FU when none available
system.cpu0.iq.fu_full::SimdAlu                     0                       # attempts to use FU when none available
system.cpu0.iq.fu_full::SimdCmp                     0                       # attempts to use FU when none available
system.cpu0.iq.fu_full::SimdCvt                     0                       # attempts to use FU when none available
system.cpu0.iq.fu_full::SimdMisc                    0                       # attempts to use FU when none available
system.cpu0.iq.fu_full::SimdMult                    0                       # attempts to use FU when none available
system.cpu0.iq.fu_full::SimdMultAcc                 0                       # attempts to use FU when none available
system.cpu0.iq.fu_full::SimdShift                   0                       # attempts to use FU when none available
system.cpu0.iq.fu_full::SimdShiftAcc                0                       # attempts to use FU when none available
system.cpu0.iq.fu_full::SimdSqrt                    0                       # attempts to use FU when none available
system.cpu0.iq.fu_full::SimdFloatAdd                0                       # attempts to use FU when none available
system.cpu0.iq.fu_full::SimdFloatAlu                0                       # attempts to use FU when none available
system.cpu0.iq.fu_full::SimdFloatCmp                0                       # attempts to use FU when none available
system.cpu0.iq.fu_full::SimdFloatCvt                0                       # attempts to use FU when none available
system.cpu0.iq.fu_full::SimdFloatDiv                0                       # attempts to use FU when none available
system.cpu0.iq.fu_full::SimdFloatMisc               0                       # attempts to use FU when none available
system.cpu0.iq.fu_full::SimdFloatMult               0                       # attempts to use FU when none available
system.cpu0.iq.fu_full::SimdFloatMultAcc            0                       # attempts to use FU when none available
system.cpu0.iq.fu_full::SimdFloatSqrt               0                       # attempts to use FU when none available
system.cpu0.iq.fu_full::MemRead                     0                       # attempts to use FU when none available
system.cpu0.iq.fu_full::MemWrite                    0                       # attempts to use FU when none available
system.cpu0.iq.fu_full::IprAccess                   0                       # attempts to use FU when none available
system.cpu0.iq.fu_full::InstPrefetch                0                       # attempts to use FU when none available
system.cpu0.iq.FU_type_0::No_OpClass                0      0.00%      0.00% # Type of FU issued
system.cpu0.iq.FU_type_0::IntAlu             17074624     40.04%     40.04% # Type of FU issued
system.cpu0.iq.FU_type_0::IntMult                   6      0.00%     40.04% # Type of FU issued
system.cpu0.iq.FU_type_0::IntDiv                    0      0.00%     40.04% # Type of FU issued
system.cpu0.iq.FU_type_0::FloatAdd                  0      0.00%     40.04% # Type of FU issued
system.cpu0.iq.FU_type_0::FloatCmp                  0      0.00%     40.04% # Type of FU issued
system.cpu0.iq.FU_type_0::FloatCvt                  0      0.00%     40.04% # Type of FU issued
system.cpu0.iq.FU_type_0::FloatMult                 0      0.00%     40.04% # Type of FU issued
system.cpu0.iq.FU_type_0::FloatDiv                  0      0.00%     40.04% # Type of FU issued
system.cpu0.iq.FU_type_0::FloatSqrt                 0      0.00%     40.04% # Type of FU issued
system.cpu0.iq.FU_type_0::SimdAdd                   0      0.00%     40.04% # Type of FU issued
system.cpu0.iq.FU_type_0::SimdAddAcc                0      0.00%     40.04% # Type of FU issued
system.cpu0.iq.FU_type_0::SimdAlu                   0      0.00%     40.04% # Type of FU issued
system.cpu0.iq.FU_type_0::SimdCmp                   0      0.00%     40.04% # Type of FU issued
system.cpu0.iq.FU_type_0::SimdCvt                   0      0.00%     40.04% # Type of FU issued
system.cpu0.iq.FU_type_0::SimdMisc                  0      0.00%     40.04% # Type of FU issued
system.cpu0.iq.FU_type_0::SimdMult                  0      0.00%     40.04% # Type of FU issued
system.cpu0.iq.FU_type_0::SimdMultAcc               0      0.00%     40.04% # Type of FU issued
system.cpu0.iq.FU_type_0::SimdShift                 0      0.00%     40.04% # Type of FU issued
system.cpu0.iq.FU_type_0::SimdShiftAcc              0      0.00%     40.04% # Type of FU issued
system.cpu0.iq.FU_type_0::SimdSqrt                  0      0.00%     40.04% # Type of FU issued
system.cpu0.iq.FU_type_0::SimdFloatAdd              0      0.00%     40.04% # Type of FU issued
system.cpu0.iq.FU_type_0::SimdFloatAlu              0      0.00%     40.04% # Type of FU issued
system.cpu0.iq.FU_type_0::SimdFloatCmp              0      0.00%     40.04% # Type of FU issued
system.cpu0.iq.FU_type_0::SimdFloatCvt              0      0.00%     40.04% # Type of FU issued
system.cpu0.iq.FU_type_0::SimdFloatDiv              0      0.00%     40.04% # Type of FU issued
system.cpu0.iq.FU_type_0::SimdFloatMisc             3      0.00%     40.04% # Type of FU issued
system.cpu0.iq.FU_type_0::SimdFloatMult             0      0.00%     40.04% # Type of FU issued
system.cpu0.iq.FU_type_0::SimdFloatMultAcc            0      0.00%     40.04% # Type of FU issued
system.cpu0.iq.FU_type_0::SimdFloatSqrt             0      0.00%     40.04% # Type of FU issued
system.cpu0.iq.FU_type_0::MemRead            17042321     39.97%     80.01% # Type of FU issued
system.cpu0.iq.FU_type_0::MemWrite            8524731     19.99%    100.00% # Type of FU issued
system.cpu0.iq.FU_type_0::IprAccess                 0      0.00%    100.00% # Type of FU issued
system.cpu0.iq.FU_type_0::InstPrefetch              0      0.00%    100.00% # Type of FU issued
system.cpu0.iq.FU_type_0::total              42641685                       # Type of FU issued
system.cpu0.iq.rate                          2.495744                       # Inst issue rate
system.cpu0.iq.fu_busy_cnt                          0                       # FU busy when requested
system.cpu0.iq.fu_busy_rate                         0                       # FU busy rate (busy events/executed inst)
system.cpu0.iq.int_inst_queue_reads         102361448                       # Number of integer instruction queue reads
system.cpu0.iq.int_inst_queue_writes         42650223                       # Number of integer instruction queue writes
system.cpu0.iq.int_inst_queue_wakeup_accesses     42640272                       # Number of integer instruction queue wakeup accesses
system.cpu0.iq.fp_inst_queue_reads                 32                       # Number of floating instruction queue reads
system.cpu0.iq.fp_inst_queue_writes                16                       # Number of floating instruction queue writes
system.cpu0.iq.fp_inst_queue_wakeup_accesses           16                       # Number of floating instruction queue wakeup accesses
system.cpu0.iq.int_alu_accesses              42641669                       # Number of integer alu accesses
system.cpu0.iq.fp_alu_accesses                     16                       # Number of floating point alu accesses
system.cpu0.iew.lsq.thread0.forwLoads         8518670                       # Number of loads that had data forwarded from stores
system.cpu0.iew.lsq.thread0.invAddrLoads            0                       # Number of loads ignored due to an invalid address
system.cpu0.iew.lsq.thread0.squashedLoads         1651                       # Number of loads squashed
system.cpu0.iew.lsq.thread0.ignoredResponses            1                       # Number of memory responses ignored because the instruction is squashed
system.cpu0.iew.lsq.thread0.memOrderViolation           48                       # Number of memory ordering violations
system.cpu0.iew.lsq.thread0.squashedStores          643                       # Number of stores squashed
system.cpu0.iew.lsq.thread0.invAddrSwpfs            0                       # Number of software prefetches ignored due to an invalid address
system.cpu0.iew.lsq.thread0.blockedLoads            0                       # Number of blocked loads due to partial load-store forwarding
system.cpu0.iew.lsq.thread0.rescheduledLoads            4                       # Number of loads that were rescheduled
system.cpu0.iew.lsq.thread0.cacheBlocked            9                       # Number of times an access to memory failed due to the cache being blocked
system.cpu0.iew.iewIdleCycles                       0                       # Number of cycles IEW is idle
system.cpu0.iew.iewSquashCycles                   699                       # Number of cycles IEW is squashing
system.cpu0.iew.iewBlockCycles                    517                       # Number of cycles IEW is blocking
system.cpu0.iew.iewUnblockCycles                  118                       # Number of cycles IEW is unblocking
system.cpu0.iew.iewDispatchedInsts           42643894                       # Number of instructions dispatched to IQ
system.cpu0.iew.iewDispSquashedInsts              483                       # Number of squashed instructions skipped by dispatch
system.cpu0.iew.iewDispLoadInsts             17042626                       # Number of dispatched load instructions
system.cpu0.iew.iewDispStoreInsts             8525000                       # Number of dispatched store instructions
system.cpu0.iew.iewDispNonSpecInsts                64                       # Number of dispatched non-speculative instructions
system.cpu0.iew.iewIQFullEvents                     3                       # Number of times the IQ has become full, causing a stall
system.cpu0.iew.iewLSQFullEvents                    0                       # Number of times the LSQ has become full, causing a stall
system.cpu0.iew.memOrderViolationEvents            48                       # Number of memory order violations
system.cpu0.iew.predictedTakenIncorrect            89                       # Number of branches that were predicted taken incorrectly
system.cpu0.iew.predictedNotTakenIncorrect          585                       # Number of branches that were predicted not taken incorrectly
system.cpu0.iew.branchMispredicts                 674                       # Number of branch mispredicts detected at execute
system.cpu0.iew.iewExecutedInsts             42640873                       # Number of executed instructions
system.cpu0.iew.iewExecLoadInsts             17042077                       # Number of load instructions executed
system.cpu0.iew.iewExecSquashedInsts              812                       # Number of squashed instructions skipped in execute
system.cpu0.iew.exec_swp                            0                       # number of swp insts executed
system.cpu0.iew.exec_nop                           21                       # number of nop insts executed
system.cpu0.iew.exec_refs                    25566658                       # number of memory reference insts executed
system.cpu0.iew.exec_branches                 8529086                       # Number of branches executed
system.cpu0.iew.exec_stores                   8524581                       # Number of stores executed
system.cpu0.iew.exec_rate                    2.495696                       # Inst execution rate
system.cpu0.iew.wb_sent                      42640397                       # cumulative count of insts sent to commit
system.cpu0.iew.wb_count                     42640288                       # cumulative count of insts written-back
system.cpu0.iew.wb_producers                 25579393                       # num instructions producing a value
system.cpu0.iew.wb_consumers                 25591101                       # num instructions consuming a value
system.cpu0.iew.wb_penalized                        0                       # number of instrctions required to write to 'other' IQ
system.cpu0.iew.wb_rate                      2.495662                       # insts written-back per cycle
system.cpu0.iew.wb_fanout                    0.999542                       # average fanout of values written-back
system.cpu0.iew.wb_penalized_rate                   0                       # fraction of instructions written-back that wrote to 'other' IQ
system.cpu0.commit.commitSquashedInsts           6339                       # The number of squashed insts skipped by commit
system.cpu0.commit.commitNonSpecStalls             85                       # The number of times commit has been forced to stall to communicate backwards
system.cpu0.commit.branchMispredicts              631                       # The number of times a branch was mispredicted
system.cpu0.commit.committed_per_cycle::samples     17076707                       # Number of insts commited each cycle
system.cpu0.commit.committed_per_cycle::mean     2.496825                       # Number of insts commited each cycle
system.cpu0.commit.committed_per_cycle::stdev     1.582094                       # Number of insts commited each cycle
system.cpu0.commit.committed_per_cycle::underflows            0      0.00%      0.00% # Number of insts commited each cycle
system.cpu0.commit.committed_per_cycle::0        18830      0.11%      0.11% # Number of insts commited each cycle
system.cpu0.commit.committed_per_cycle::1      8527296     49.94%     50.05% # Number of insts commited each cycle
system.cpu0.commit.committed_per_cycle::2         3504      0.02%     50.07% # Number of insts commited each cycle
system.cpu0.commit.committed_per_cycle::3      2135566     12.51%     62.57% # Number of insts commited each cycle
system.cpu0.commit.committed_per_cycle::4      4261511     24.96%     87.53% # Number of insts commited each cycle
system.cpu0.commit.committed_per_cycle::5      2129758     12.47%    100.00% # Number of insts commited each cycle
system.cpu0.commit.committed_per_cycle::6           80      0.00%    100.00% # Number of insts commited each cycle
system.cpu0.commit.committed_per_cycle::7           58      0.00%    100.00% # Number of insts commited each cycle
system.cpu0.commit.committed_per_cycle::8          104      0.00%    100.00% # Number of insts commited each cycle
system.cpu0.commit.committed_per_cycle::overflows            0      0.00%    100.00% # Number of insts commited each cycle
system.cpu0.commit.committed_per_cycle::min_value            0                       # Number of insts commited each cycle
system.cpu0.commit.committed_per_cycle::max_value            8                       # Number of insts commited each cycle
system.cpu0.commit.committed_per_cycle::total     17076707                       # Number of insts commited each cycle
system.cpu0.commit.committedInsts            42634000                       # Number of instructions committed
system.cpu0.commit.committedOps              42637554                       # Number of ops (including micro ops) committed
system.cpu0.commit.swp_count                        0                       # Number of s/w prefetches committed
system.cpu0.commit.refs                      25565332                       # Number of memory references committed
system.cpu0.commit.loads                     17040975                       # Number of loads committed
system.cpu0.commit.membars                         30                       # Number of memory barriers committed
system.cpu0.commit.branches                   8528641                       # Number of branches committed
system.cpu0.commit.fp_insts                        16                       # Number of committed floating point instructions.
system.cpu0.commit.int_insts                 34113449                       # Number of committed integer instructions.
system.cpu0.commit.function_calls                2224                       # Number of function calls committed.
system.cpu0.commit.op_class_0::No_OpClass            0      0.00%      0.00% # Class of committed instruction
system.cpu0.commit.op_class_0::IntAlu        17072213     40.04%     40.04% # Class of committed instruction
system.cpu0.commit.op_class_0::IntMult              6      0.00%     40.04% # Class of committed instruction
system.cpu0.commit.op_class_0::IntDiv               0      0.00%     40.04% # Class of committed instruction
system.cpu0.commit.op_class_0::FloatAdd             0      0.00%     40.04% # Class of committed instruction
system.cpu0.commit.op_class_0::FloatCmp             0      0.00%     40.04% # Class of committed instruction
system.cpu0.commit.op_class_0::FloatCvt             0      0.00%     40.04% # Class of committed instruction
system.cpu0.commit.op_class_0::FloatMult            0      0.00%     40.04% # Class of committed instruction
system.cpu0.commit.op_class_0::FloatDiv             0      0.00%     40.04% # Class of committed instruction
system.cpu0.commit.op_class_0::FloatSqrt            0      0.00%     40.04% # Class of committed instruction
system.cpu0.commit.op_class_0::SimdAdd              0      0.00%     40.04% # Class of committed instruction
system.cpu0.commit.op_class_0::SimdAddAcc            0      0.00%     40.04% # Class of committed instruction
system.cpu0.commit.op_class_0::SimdAlu              0      0.00%     40.04% # Class of committed instruction
system.cpu0.commit.op_class_0::SimdCmp              0      0.00%     40.04% # Class of committed instruction
system.cpu0.commit.op_class_0::SimdCvt              0      0.00%     40.04% # Class of committed instruction
system.cpu0.commit.op_class_0::SimdMisc             0      0.00%     40.04% # Class of committed instruction
system.cpu0.commit.op_class_0::SimdMult             0      0.00%     40.04% # Class of committed instruction
system.cpu0.commit.op_class_0::SimdMultAcc            0      0.00%     40.04% # Class of committed instruction
system.cpu0.commit.op_class_0::SimdShift            0      0.00%     40.04% # Class of committed instruction
system.cpu0.commit.op_class_0::SimdShiftAcc            0      0.00%     40.04% # Class of committed instruction
system.cpu0.commit.op_class_0::SimdSqrt             0      0.00%     40.04% # Class of committed instruction
system.cpu0.commit.op_class_0::SimdFloatAdd            0      0.00%     40.04% # Class of committed instruction
system.cpu0.commit.op_class_0::SimdFloatAlu            0      0.00%     40.04% # Class of committed instruction
system.cpu0.commit.op_class_0::SimdFloatCmp            0      0.00%     40.04% # Class of committed instruction
system.cpu0.commit.op_class_0::SimdFloatCvt            0      0.00%     40.04% # Class of committed instruction
system.cpu0.commit.op_class_0::SimdFloatDiv            0      0.00%     40.04% # Class of committed instruction
system.cpu0.commit.op_class_0::SimdFloatMisc            3      0.00%     40.04% # Class of committed instruction
system.cpu0.commit.op_class_0::SimdFloatMult            0      0.00%     40.04% # Class of committed instruction
system.cpu0.commit.op_class_0::SimdFloatMultAcc            0      0.00%     40.04% # Class of committed instruction
system.cpu0.commit.op_class_0::SimdFloatSqrt            0      0.00%     40.04% # Class of committed instruction
system.cpu0.commit.op_class_0::MemRead       17040975     39.97%     80.01% # Class of committed instruction
system.cpu0.commit.op_class_0::MemWrite       8524357     19.99%    100.00% # Class of committed instruction
system.cpu0.commit.op_class_0::IprAccess            0      0.00%    100.00% # Class of committed instruction
system.cpu0.commit.op_class_0::InstPrefetch            0      0.00%    100.00% # Class of committed instruction
system.cpu0.commit.op_class_0::total         42637554                       # Class of committed instruction
system.cpu0.commit.bw_lim_events                  104                       # number cycles where commit BW limit reached
system.cpu0.rob.rob_reads                    59720183                       # The number of ROB reads
system.cpu0.rob.rob_writes                   85288949                       # The number of ROB writes
system.cpu0.timesIdled                            256                       # Number of times that the entire CPU went into an idle state and unscheduled itself
system.cpu0.idleCycles                           7900                       # Total number of cycles that the CPU has spent unscheduled due to idling
system.cpu0.committedInsts                   42634000                       # Number of Instructions Simulated
system.cpu0.committedOps                     42637554                       # Number of Ops (including micro ops) Simulated
system.cpu0.cpi                              0.400754                       # CPI: Cycles Per Instruction
system.cpu0.cpi_total                        0.400754                       # CPI: Total CPI of All Threads
system.cpu0.ipc                              2.495294                       # IPC: Instructions Per Cycle
system.cpu0.ipc_total                        2.495294                       # IPC: Total IPC of All Threads
system.cpu0.int_regfile_reads                42639691                       # number of integer regfile reads
system.cpu0.int_regfile_writes               17065223                       # number of integer regfile writes
system.cpu0.fp_regfile_reads                     1296                       # number of floating regfile reads
system.cpu0.cc_regfile_reads                179047018                       # number of cc regfile reads
system.cpu0.cc_regfile_writes                25576258                       # number of cc regfile writes
system.cpu0.misc_regfile_reads               26043654                       # number of misc regfile reads
system.cpu0.misc_regfile_writes                    62                       # number of misc regfile writes
system.cpu0.dcache.tags.replacements              615                       # number of replacements
system.cpu0.dcache.tags.tagsinuse          194.760768                       # Cycle average of tags in use
system.cpu0.dcache.tags.total_refs           17041621                       # Total number of references to valid blocks.
system.cpu0.dcache.tags.sampled_refs              822                       # Sample count of references to valid blocks.
system.cpu0.dcache.tags.avg_refs         20731.899027                       # Average number of references to valid blocks.
system.cpu0.dcache.tags.warmup_cycle         26875000                       # Cycle when the warmup percentage was hit.
system.cpu0.dcache.tags.occ_blocks::cpu0.data   194.760768                       # Average occupied blocks per requestor
system.cpu0.dcache.tags.occ_percent::cpu0.data     0.380392                       # Average percentage of cache occupancy
system.cpu0.dcache.tags.occ_percent::total     0.380392                       # Average percentage of cache occupancy
system.cpu0.dcache.tags.occ_task_id_blocks::1024          207                       # Occupied blocks per task id
system.cpu0.dcache.tags.age_task_id_blocks_1024::0           25                       # Occupied blocks per task id
system.cpu0.dcache.tags.age_task_id_blocks_1024::4          182                       # Occupied blocks per task id
system.cpu0.dcache.tags.occ_task_id_percent::1024     0.404297                       # Percentage of cache occupancy per task id
system.cpu0.dcache.tags.tag_accesses         34096158                       # Number of tag accesses
system.cpu0.dcache.tags.data_accesses        34096158                       # Number of data accesses
system.cpu0.dcache.ReadReq_hits::cpu0.data      8522898                       # number of ReadReq hits
system.cpu0.dcache.ReadReq_hits::total        8522898                       # number of ReadReq hits
system.cpu0.dcache.WriteReq_hits::cpu0.data      8519791                       # number of WriteReq hits
system.cpu0.dcache.WriteReq_hits::total       8519791                       # number of WriteReq hits
system.cpu0.dcache.LoadLockedReq_hits::cpu0.data           27                       # number of LoadLockedReq hits
system.cpu0.dcache.LoadLockedReq_hits::total           27                       # number of LoadLockedReq hits
system.cpu0.dcache.StoreCondReq_hits::cpu0.data           28                       # number of StoreCondReq hits
system.cpu0.dcache.StoreCondReq_hits::total           28                       # number of StoreCondReq hits
system.cpu0.dcache.demand_hits::cpu0.data     17042689                       # number of demand (read+write) hits
system.cpu0.dcache.demand_hits::total        17042689                       # number of demand (read+write) hits
system.cpu0.dcache.overall_hits::cpu0.data     17042689                       # number of overall hits
system.cpu0.dcache.overall_hits::total       17042689                       # number of overall hits
system.cpu0.dcache.ReadReq_misses::cpu0.data          265                       # number of ReadReq misses
system.cpu0.dcache.ReadReq_misses::total          265                       # number of ReadReq misses
system.cpu0.dcache.WriteReq_misses::cpu0.data         4486                       # number of WriteReq misses
system.cpu0.dcache.WriteReq_misses::total         4486                       # number of WriteReq misses
system.cpu0.dcache.LoadLockedReq_misses::cpu0.data            5                       # number of LoadLockedReq misses
system.cpu0.dcache.LoadLockedReq_misses::total            5                       # number of LoadLockedReq misses
system.cpu0.dcache.StoreCondReq_misses::cpu0.data            1                       # number of StoreCondReq misses
system.cpu0.dcache.StoreCondReq_misses::total            1                       # number of StoreCondReq misses
system.cpu0.dcache.demand_misses::cpu0.data         4751                       # number of demand (read+write) misses
system.cpu0.dcache.demand_misses::total          4751                       # number of demand (read+write) misses
system.cpu0.dcache.overall_misses::cpu0.data         4751                       # number of overall misses
system.cpu0.dcache.overall_misses::total         4751                       # number of overall misses
system.cpu0.dcache.ReadReq_miss_latency::cpu0.data     10080987                       # number of ReadReq miss cycles
system.cpu0.dcache.ReadReq_miss_latency::total     10080987                       # number of ReadReq miss cycles
system.cpu0.dcache.WriteReq_miss_latency::cpu0.data    224330999                       # number of WriteReq miss cycles
system.cpu0.dcache.WriteReq_miss_latency::total    224330999                       # number of WriteReq miss cycles
system.cpu0.dcache.LoadLockedReq_miss_latency::cpu0.data       171500                       # number of LoadLockedReq miss cycles
system.cpu0.dcache.LoadLockedReq_miss_latency::total       171500                       # number of LoadLockedReq miss cycles
system.cpu0.dcache.StoreCondReq_miss_latency::cpu0.data         7500                       # number of StoreCondReq miss cycles
system.cpu0.dcache.StoreCondReq_miss_latency::total         7500                       # number of StoreCondReq miss cycles
system.cpu0.dcache.demand_miss_latency::cpu0.data    234411986                       # number of demand (read+write) miss cycles
system.cpu0.dcache.demand_miss_latency::total    234411986                       # number of demand (read+write) miss cycles
system.cpu0.dcache.overall_miss_latency::cpu0.data    234411986                       # number of overall miss cycles
system.cpu0.dcache.overall_miss_latency::total    234411986                       # number of overall miss cycles
system.cpu0.dcache.ReadReq_accesses::cpu0.data      8523163                       # number of ReadReq accesses(hits+misses)
system.cpu0.dcache.ReadReq_accesses::total      8523163                       # number of ReadReq accesses(hits+misses)
system.cpu0.dcache.WriteReq_accesses::cpu0.data      8524277                       # number of WriteReq accesses(hits+misses)
system.cpu0.dcache.WriteReq_accesses::total      8524277                       # number of WriteReq accesses(hits+misses)
system.cpu0.dcache.LoadLockedReq_accesses::cpu0.data           32                       # number of LoadLockedReq accesses(hits+misses)
system.cpu0.dcache.LoadLockedReq_accesses::total           32                       # number of LoadLockedReq accesses(hits+misses)
system.cpu0.dcache.StoreCondReq_accesses::cpu0.data           29                       # number of StoreCondReq accesses(hits+misses)
system.cpu0.dcache.StoreCondReq_accesses::total           29                       # number of StoreCondReq accesses(hits+misses)
system.cpu0.dcache.demand_accesses::cpu0.data     17047440                       # number of demand (read+write) accesses
system.cpu0.dcache.demand_accesses::total     17047440                       # number of demand (read+write) accesses
system.cpu0.dcache.overall_accesses::cpu0.data     17047440                       # number of overall (read+write) accesses
system.cpu0.dcache.overall_accesses::total     17047440                       # number of overall (read+write) accesses
system.cpu0.dcache.ReadReq_miss_rate::cpu0.data     0.000031                       # miss rate for ReadReq accesses
system.cpu0.dcache.ReadReq_miss_rate::total     0.000031                       # miss rate for ReadReq accesses
system.cpu0.dcache.WriteReq_miss_rate::cpu0.data     0.000526                       # miss rate for WriteReq accesses
system.cpu0.dcache.WriteReq_miss_rate::total     0.000526                       # miss rate for WriteReq accesses
system.cpu0.dcache.LoadLockedReq_miss_rate::cpu0.data     0.156250                       # miss rate for LoadLockedReq accesses
system.cpu0.dcache.LoadLockedReq_miss_rate::total     0.156250                       # miss rate for LoadLockedReq accesses
system.cpu0.dcache.StoreCondReq_miss_rate::cpu0.data     0.034483                       # miss rate for StoreCondReq accesses
system.cpu0.dcache.StoreCondReq_miss_rate::total     0.034483                       # miss rate for StoreCondReq accesses
system.cpu0.dcache.demand_miss_rate::cpu0.data     0.000279                       # miss rate for demand accesses
system.cpu0.dcache.demand_miss_rate::total     0.000279                       # miss rate for demand accesses
system.cpu0.dcache.overall_miss_rate::cpu0.data     0.000279                       # miss rate for overall accesses
system.cpu0.dcache.overall_miss_rate::total     0.000279                       # miss rate for overall accesses
system.cpu0.dcache.ReadReq_avg_miss_latency::cpu0.data 38041.460377                       # average ReadReq miss latency
system.cpu0.dcache.ReadReq_avg_miss_latency::total 38041.460377                       # average ReadReq miss latency
system.cpu0.dcache.WriteReq_avg_miss_latency::cpu0.data 50006.910165                       # average WriteReq miss latency
system.cpu0.dcache.WriteReq_avg_miss_latency::total 50006.910165                       # average WriteReq miss latency
system.cpu0.dcache.LoadLockedReq_avg_miss_latency::cpu0.data        34300                       # average LoadLockedReq miss latency
system.cpu0.dcache.LoadLockedReq_avg_miss_latency::total        34300                       # average LoadLockedReq miss latency
system.cpu0.dcache.StoreCondReq_avg_miss_latency::cpu0.data         7500                       # average StoreCondReq miss latency
system.cpu0.dcache.StoreCondReq_avg_miss_latency::total         7500                       # average StoreCondReq miss latency
system.cpu0.dcache.demand_avg_miss_latency::cpu0.data 49339.504525                       # average overall miss latency
system.cpu0.dcache.demand_avg_miss_latency::total 49339.504525                       # average overall miss latency
system.cpu0.dcache.overall_avg_miss_latency::cpu0.data 49339.504525                       # average overall miss latency
system.cpu0.dcache.overall_avg_miss_latency::total 49339.504525                       # average overall miss latency
system.cpu0.dcache.blocked_cycles::no_mshrs           72                       # number of cycles access was blocked
system.cpu0.dcache.blocked_cycles::no_targets            0                       # number of cycles access was blocked
system.cpu0.dcache.blocked::no_mshrs                7                       # number of cycles access was blocked
system.cpu0.dcache.blocked::no_targets              0                       # number of cycles access was blocked
system.cpu0.dcache.avg_blocked_cycles::no_mshrs    10.285714                       # average number of cycles each access was blocked
system.cpu0.dcache.avg_blocked_cycles::no_targets          nan                       # average number of cycles each access was blocked
system.cpu0.dcache.fast_writes                      0                       # number of fast writes performed
system.cpu0.dcache.cache_copies                     0                       # number of cache copies performed
system.cpu0.dcache.writebacks::writebacks          531                       # number of writebacks
system.cpu0.dcache.writebacks::total              531                       # number of writebacks
system.cpu0.dcache.ReadReq_mshr_hits::cpu0.data           81                       # number of ReadReq MSHR hits
system.cpu0.dcache.ReadReq_mshr_hits::total           81                       # number of ReadReq MSHR hits
system.cpu0.dcache.WriteReq_mshr_hits::cpu0.data         3509                       # number of WriteReq MSHR hits
system.cpu0.dcache.WriteReq_mshr_hits::total         3509                       # number of WriteReq MSHR hits
system.cpu0.dcache.LoadLockedReq_mshr_hits::cpu0.data            5                       # number of LoadLockedReq MSHR hits
system.cpu0.dcache.LoadLockedReq_mshr_hits::total            5                       # number of LoadLockedReq MSHR hits
system.cpu0.dcache.demand_mshr_hits::cpu0.data         3590                       # number of demand (read+write) MSHR hits
system.cpu0.dcache.demand_mshr_hits::total         3590                       # number of demand (read+write) MSHR hits
system.cpu0.dcache.overall_mshr_hits::cpu0.data         3590                       # number of overall MSHR hits
system.cpu0.dcache.overall_mshr_hits::total         3590                       # number of overall MSHR hits
system.cpu0.dcache.ReadReq_mshr_misses::cpu0.data          184                       # number of ReadReq MSHR misses
system.cpu0.dcache.ReadReq_mshr_misses::total          184                       # number of ReadReq MSHR misses
system.cpu0.dcache.WriteReq_mshr_misses::cpu0.data          977                       # number of WriteReq MSHR misses
system.cpu0.dcache.WriteReq_mshr_misses::total          977                       # number of WriteReq MSHR misses
system.cpu0.dcache.StoreCondReq_mshr_misses::cpu0.data            1                       # number of StoreCondReq MSHR misses
system.cpu0.dcache.StoreCondReq_mshr_misses::total            1                       # number of StoreCondReq MSHR misses
system.cpu0.dcache.demand_mshr_misses::cpu0.data         1161                       # number of demand (read+write) MSHR misses
system.cpu0.dcache.demand_mshr_misses::total         1161                       # number of demand (read+write) MSHR misses
system.cpu0.dcache.overall_mshr_misses::cpu0.data         1161                       # number of overall MSHR misses
system.cpu0.dcache.overall_mshr_misses::total         1161                       # number of overall MSHR misses
system.cpu0.dcache.ReadReq_mshr_miss_latency::cpu0.data      6681009                       # number of ReadReq MSHR miss cycles
system.cpu0.dcache.ReadReq_mshr_miss_latency::total      6681009                       # number of ReadReq MSHR miss cycles
system.cpu0.dcache.WriteReq_mshr_miss_latency::cpu0.data     53276000                       # number of WriteReq MSHR miss cycles
system.cpu0.dcache.WriteReq_mshr_miss_latency::total     53276000                       # number of WriteReq MSHR miss cycles
system.cpu0.dcache.StoreCondReq_mshr_miss_latency::cpu0.data         4500                       # number of StoreCondReq MSHR miss cycles
system.cpu0.dcache.StoreCondReq_mshr_miss_latency::total         4500                       # number of StoreCondReq MSHR miss cycles
system.cpu0.dcache.demand_mshr_miss_latency::cpu0.data     59957009                       # number of demand (read+write) MSHR miss cycles
system.cpu0.dcache.demand_mshr_miss_latency::total     59957009                       # number of demand (read+write) MSHR miss cycles
system.cpu0.dcache.overall_mshr_miss_latency::cpu0.data     59957009                       # number of overall MSHR miss cycles
system.cpu0.dcache.overall_mshr_miss_latency::total     59957009                       # number of overall MSHR miss cycles
system.cpu0.dcache.ReadReq_mshr_miss_rate::cpu0.data     0.000022                       # mshr miss rate for ReadReq accesses
system.cpu0.dcache.ReadReq_mshr_miss_rate::total     0.000022                       # mshr miss rate for ReadReq accesses
system.cpu0.dcache.WriteReq_mshr_miss_rate::cpu0.data     0.000115                       # mshr miss rate for WriteReq accesses
system.cpu0.dcache.WriteReq_mshr_miss_rate::total     0.000115                       # mshr miss rate for WriteReq accesses
system.cpu0.dcache.StoreCondReq_mshr_miss_rate::cpu0.data     0.034483                       # mshr miss rate for StoreCondReq accesses
system.cpu0.dcache.StoreCondReq_mshr_miss_rate::total     0.034483                       # mshr miss rate for StoreCondReq accesses
system.cpu0.dcache.demand_mshr_miss_rate::cpu0.data     0.000068                       # mshr miss rate for demand accesses
system.cpu0.dcache.demand_mshr_miss_rate::total     0.000068                       # mshr miss rate for demand accesses
system.cpu0.dcache.overall_mshr_miss_rate::cpu0.data     0.000068                       # mshr miss rate for overall accesses
system.cpu0.dcache.overall_mshr_miss_rate::total     0.000068                       # mshr miss rate for overall accesses
system.cpu0.dcache.ReadReq_avg_mshr_miss_latency::cpu0.data 36309.831522                       # average ReadReq mshr miss latency
system.cpu0.dcache.ReadReq_avg_mshr_miss_latency::total 36309.831522                       # average ReadReq mshr miss latency
system.cpu0.dcache.WriteReq_avg_mshr_miss_latency::cpu0.data 54530.194473                       # average WriteReq mshr miss latency
system.cpu0.dcache.WriteReq_avg_mshr_miss_latency::total 54530.194473                       # average WriteReq mshr miss latency
system.cpu0.dcache.StoreCondReq_avg_mshr_miss_latency::cpu0.data         4500                       # average StoreCondReq mshr miss latency
system.cpu0.dcache.StoreCondReq_avg_mshr_miss_latency::total         4500                       # average StoreCondReq mshr miss latency
system.cpu0.dcache.demand_avg_mshr_miss_latency::cpu0.data 51642.557278                       # average overall mshr miss latency
system.cpu0.dcache.demand_avg_mshr_miss_latency::total 51642.557278                       # average overall mshr miss latency
system.cpu0.dcache.overall_avg_mshr_miss_latency::cpu0.data 51642.557278                       # average overall mshr miss latency
system.cpu0.dcache.overall_avg_mshr_miss_latency::total 51642.557278                       # average overall mshr miss latency
system.cpu0.dcache.no_allocate_misses               0                       # Number of misses that were no-allocate
system.cpu0.icache.tags.replacements               77                       # number of replacements
system.cpu0.icache.tags.tagsinuse          295.698470                       # Cycle average of tags in use
system.cpu0.icache.tags.total_refs               6945                       # Total number of references to valid blocks.
[...]
system.l2.demand_avg_mshr_miss_latency::cpu8.data 40732.704403                       # average overall mshr miss latency
system.l2.demand_avg_mshr_miss_latency::total 40834.722222                       # average overall mshr miss latency
system.l2.overall_avg_mshr_miss_latency::cpu0.inst 41047.486034                       # average overall mshr miss latency
system.l2.overall_avg_mshr_miss_latency::cpu0.data 40727.272727                       # average overall mshr miss latency
system.l2.overall_avg_mshr_miss_latency::cpu1.inst 40891.304348                       # average overall mshr miss latency
system.l2.overall_avg_mshr_miss_latency::cpu1.data 41459.232614                       # average overall mshr miss latency
system.l2.overall_avg_mshr_miss_latency::cpu2.inst 40892.857143                       # average overall mshr miss latency
system.l2.overall_avg_mshr_miss_latency::cpu2.data 41281.967213                       # average overall mshr miss latency
system.l2.overall_avg_mshr_miss_latency::cpu3.inst 40540.540541                       # average overall mshr miss latency
system.l2.overall_avg_mshr_miss_latency::cpu3.data 40856.230032                       # average overall mshr miss latency
system.l2.overall_avg_mshr_miss_latency::cpu4.inst 40983.146067                       # average overall mshr miss latency
system.l2.overall_avg_mshr_miss_latency::cpu4.data 40660.386029                       # average overall mshr miss latency
system.l2.overall_avg_mshr_miss_latency::cpu5.inst 41461.538462                       # average overall mshr miss latency
system.l2.overall_avg_mshr_miss_latency::cpu5.data 40663.453111                       # average overall mshr miss latency
system.l2.overall_avg_mshr_miss_latency::cpu6.inst 40777.777778                       # average overall mshr miss latency
system.l2.overall_avg_mshr_miss_latency::cpu6.data 40787.541713                       # average overall mshr miss latency
system.l2.overall_avg_mshr_miss_latency::cpu7.inst 41612.903226                       # average overall mshr miss latency
system.l2.overall_avg_mshr_miss_latency::cpu7.data 40668.019481                       # average overall mshr miss latency
system.l2.overall_avg_mshr_miss_latency::cpu8.inst 40573.333333                       # average overall mshr miss latency
system.l2.overall_avg_mshr_miss_latency::cpu8.data 40732.704403                       # average overall mshr miss latency
system.l2.overall_avg_mshr_miss_latency::total 40834.722222                       # average overall mshr miss latency
system.l2.no_allocate_misses                        0                       # Number of misses that were no-allocate
system.membus.trans_dist::ReadReq                5713                       # Transaction distribution
system.membus.trans_dist::ReadResp               5713                       # Transaction distribution
system.membus.trans_dist::Writeback               193                       # Transaction distribution
system.membus.trans_dist::UpgradeReq           149850                       # Transaction distribution
system.membus.trans_dist::SCUpgradeReq         209189                       # Transaction distribution
system.membus.trans_dist::UpgradeResp          176814                       # Transaction distribution
system.membus.trans_dist::SCUpgradeFailReq          200                       # Transaction distribution
system.membus.trans_dist::ReadExReq              6952                       # Transaction distribution
system.membus.trans_dist::ReadExResp             1844                       # Transaction distribution
system.membus.pkt_count_system.l2.mem_side::system.physmem.port       556468                       # Packet count per connected master and slave (bytes)
system.membus.pkt_count::total                 556468                       # Packet count per connected master and slave (bytes)
system.membus.pkt_size_system.l2.mem_side::system.physmem.port       496000                       # Cumulative packet size per connected master and slave (bytes)
system.membus.pkt_size::total                  496000                       # Cumulative packet size per connected master and slave (bytes)
system.membus.snoops                           187533                       # Total snoops (count)
system.membus.snoop_fanout::samples            372704                       # Request fanout histogram
system.membus.snoop_fanout::mean                    0                       # Request fanout histogram
system.membus.snoop_fanout::stdev                   0                       # Request fanout histogram
system.membus.snoop_fanout::underflows              0      0.00%      0.00% # Request fanout histogram
system.membus.snoop_fanout::0                  372704    100.00%    100.00% # Request fanout histogram
system.membus.snoop_fanout::1                       0      0.00%    100.00% # Request fanout histogram
system.membus.snoop_fanout::overflows               0      0.00%    100.00% # Request fanout histogram
system.membus.snoop_fanout::min_value               0                       # Request fanout histogram
system.membus.snoop_fanout::max_value               0                       # Request fanout histogram
system.membus.snoop_fanout::total              372704                       # Request fanout histogram
system.membus.reqLayer0.occupancy           265235840                       # Layer occupancy (ticks)
system.membus.reqLayer0.utilization               1.6                       # Layer utilization (%)
system.membus.respLayer1.occupancy          293304367                       # Layer occupancy (ticks)
system.membus.respLayer1.utilization              1.7                       # Layer utilization (%)
system.tol2bus.trans_dist::ReadReq            1466991                       # Transaction distribution
system.tol2bus.trans_dist::ReadResp           1463031                       # Transaction distribution
system.tol2bus.trans_dist::ReadRespWithInvalidate         3960                       # Transaction distribution
system.tol2bus.trans_dist::Writeback            11860                       # Transaction distribution
system.tol2bus.trans_dist::UpgradeReq          149971                       # Transaction distribution
system.tol2bus.trans_dist::SCUpgradeReq        209194                       # Transaction distribution
system.tol2bus.trans_dist::UpgradeResp         359165                       # Transaction distribution
system.tol2bus.trans_dist::SCUpgradeFailReq        41120                       # Transaction distribution
system.tol2bus.trans_dist::UpgradeFailResp        41120                       # Transaction distribution
system.tol2bus.trans_dist::ReadExReq            77691                       # Transaction distribution
system.tol2bus.trans_dist::ReadExResp           77691                       # Transaction distribution
system.tol2bus.pkt_count_system.cpu0.icache.mem_side::system.l2.cpu_side          802                       # Packet count per connected master and slave (bytes)
system.tol2bus.pkt_count_system.cpu0.dcache.mem_side::system.l2.cpu_side         2841                       # Packet count per connected master and slave (bytes)
system.tol2bus.pkt_count_system.cpu1.icache.mem_side::system.l2.cpu_side         2802                       # Packet count per connected master and slave (bytes)
system.tol2bus.pkt_count_system.cpu1.dcache.mem_side::system.l2.cpu_side       154624                       # Packet count per connected master and slave (bytes)
system.tol2bus.pkt_count_system.cpu2.icache.mem_side::system.l2.cpu_side         2979                       # Packet count per connected master and slave (bytes)
system.tol2bus.pkt_count_system.cpu2.dcache.mem_side::system.l2.cpu_side       219769                       # Packet count per connected master and slave (bytes)
system.tol2bus.pkt_count_system.cpu3.icache.mem_side::system.l2.cpu_side         3035                       # Packet count per connected master and slave (bytes)
system.tol2bus.pkt_count_system.cpu3.dcache.mem_side::system.l2.cpu_side       267781                       # Packet count per connected master and slave (bytes)
system.tol2bus.pkt_count_system.cpu4.icache.mem_side::system.l2.cpu_side         2707                       # Packet count per connected master and slave (bytes)
system.tol2bus.pkt_count_system.cpu4.dcache.mem_side::system.l2.cpu_side       323746                       # Packet count per connected master and slave (bytes)
system.tol2bus.pkt_count_system.cpu5.icache.mem_side::system.l2.cpu_side         3570                       # Packet count per connected master and slave (bytes)
system.tol2bus.pkt_count_system.cpu5.dcache.mem_side::system.l2.cpu_side       342291                       # Packet count per connected master and slave (bytes)
system.tol2bus.pkt_count_system.cpu6.icache.mem_side::system.l2.cpu_side         2828                       # Packet count per connected master and slave (bytes)
system.tol2bus.pkt_count_system.cpu6.dcache.mem_side::system.l2.cpu_side       328689                       # Packet count per connected master and slave (bytes)
system.tol2bus.pkt_count_system.cpu7.icache.mem_side::system.l2.cpu_side         3200                       # Packet count per connected master and slave (bytes)
system.tol2bus.pkt_count_system.cpu7.dcache.mem_side::system.l2.cpu_side       325019                       # Packet count per connected master and slave (bytes)
system.tol2bus.pkt_count_system.cpu8.icache.mem_side::system.l2.cpu_side         2749                       # Packet count per connected master and slave (bytes)
system.tol2bus.pkt_count_system.cpu8.dcache.mem_side::system.l2.cpu_side       200100                       # Packet count per connected master and slave (bytes)
system.tol2bus.pkt_count::total               2189532                       # Packet count per connected master and slave (bytes)
system.tol2bus.pkt_size_system.cpu0.icache.mem_side::system.l2.cpu_side        25664                       # Cumulative packet size per connected master and slave (bytes)
system.tol2bus.pkt_size_system.cpu0.dcache.mem_side::system.l2.cpu_side       107264                       # Cumulative packet size per connected master and slave (bytes)
system.tol2bus.pkt_size_system.cpu1.icache.mem_side::system.l2.cpu_side        89664                       # Cumulative packet size per connected master and slave (bytes)
system.tol2bus.pkt_size_system.cpu1.dcache.mem_side::system.l2.cpu_side        94720                       # Cumulative packet size per connected master and slave (bytes)
system.tol2bus.pkt_size_system.cpu2.icache.mem_side::system.l2.cpu_side        95296                       # Cumulative packet size per connected master and slave (bytes)
system.tol2bus.pkt_size_system.cpu2.dcache.mem_side::system.l2.cpu_side       206080                       # Cumulative packet size per connected master and slave (bytes)
system.tol2bus.pkt_size_system.cpu3.icache.mem_side::system.l2.cpu_side        97088                       # Cumulative packet size per connected master and slave (bytes)
system.tol2bus.pkt_size_system.cpu3.dcache.mem_side::system.l2.cpu_side       286080                       # Cumulative packet size per connected master and slave (bytes)
system.tol2bus.pkt_size_system.cpu4.icache.mem_side::system.l2.cpu_side        86592                       # Cumulative packet size per connected master and slave (bytes)
system.tol2bus.pkt_size_system.cpu4.dcache.mem_side::system.l2.cpu_side       453056                       # Cumulative packet size per connected master and slave (bytes)
system.tol2bus.pkt_size_system.cpu5.icache.mem_side::system.l2.cpu_side       114240                       # Cumulative packet size per connected master and slave (bytes)
system.tol2bus.pkt_size_system.cpu5.dcache.mem_side::system.l2.cpu_side       685952                       # Cumulative packet size per connected master and slave (bytes)
system.tol2bus.pkt_size_system.cpu6.icache.mem_side::system.l2.cpu_side        90496                       # Cumulative packet size per connected master and slave (bytes)
system.tol2bus.pkt_size_system.cpu6.dcache.mem_side::system.l2.cpu_side       829888                       # Cumulative packet size per connected master and slave (bytes)
system.tol2bus.pkt_size_system.cpu7.icache.mem_side::system.l2.cpu_side       102336                       # Cumulative packet size per connected master and slave (bytes)
system.tol2bus.pkt_size_system.cpu7.dcache.mem_side::system.l2.cpu_side       670976                       # Cumulative packet size per connected master and slave (bytes)
system.tol2bus.pkt_size_system.cpu8.icache.mem_side::system.l2.cpu_side        87936                       # Cumulative packet size per connected master and slave (bytes)
system.tol2bus.pkt_size_system.cpu8.dcache.mem_side::system.l2.cpu_side       204672                       # Cumulative packet size per connected master and slave (bytes)
system.tol2bus.pkt_size::total                4328000                       # Cumulative packet size per connected master and slave (bytes)
system.tol2bus.snoops                         1712262                       # Total snoops (count)
system.tol2bus.snoop_fanout::samples          1956831                       # Request fanout histogram
system.tol2bus.snoop_fanout::mean                  17                       # Request fanout histogram
system.tol2bus.snoop_fanout::stdev                  0                       # Request fanout histogram
system.tol2bus.snoop_fanout::underflows             0      0.00%      0.00% # Request fanout histogram
system.tol2bus.snoop_fanout::0                      0      0.00%      0.00% # Request fanout histogram
system.tol2bus.snoop_fanout::1                      0      0.00%      0.00% # Request fanout histogram
system.tol2bus.snoop_fanout::2                      0      0.00%      0.00% # Request fanout histogram
system.tol2bus.snoop_fanout::3                      0      0.00%      0.00% # Request fanout histogram
system.tol2bus.snoop_fanout::4                      0      0.00%      0.00% # Request fanout histogram
system.tol2bus.snoop_fanout::5                      0      0.00%      0.00% # Request fanout histogram
system.tol2bus.snoop_fanout::6                      0      0.00%      0.00% # Request fanout histogram
system.tol2bus.snoop_fanout::7                      0      0.00%      0.00% # Request fanout histogram
system.tol2bus.snoop_fanout::8                      0      0.00%      0.00% # Request fanout histogram
system.tol2bus.snoop_fanout::9                      0      0.00%      0.00% # Request fanout histogram
system.tol2bus.snoop_fanout::10                     0      0.00%      0.00% # Request fanout histogram
system.tol2bus.snoop_fanout::11                     0      0.00%      0.00% # Request fanout histogram
system.tol2bus.snoop_fanout::12                     0      0.00%      0.00% # Request fanout histogram
system.tol2bus.snoop_fanout::13                     0      0.00%      0.00% # Request fanout histogram
system.tol2bus.snoop_fanout::14                     0      0.00%      0.00% # Request fanout histogram
system.tol2bus.snoop_fanout::15                     0      0.00%      0.00% # Request fanout histogram
system.tol2bus.snoop_fanout::16                     0      0.00%      0.00% # Request fanout histogram
system.tol2bus.snoop_fanout::17               1956831    100.00%    100.00% # Request fanout histogram
system.tol2bus.snoop_fanout::18                     0      0.00%    100.00% # Request fanout histogram
system.tol2bus.snoop_fanout::overflows              0      0.00%    100.00% # Request fanout histogram
system.tol2bus.snoop_fanout::min_value             17                       # Request fanout histogram
system.tol2bus.snoop_fanout::max_value             17                       # Request fanout histogram
system.tol2bus.snoop_fanout::total            1956831                       # Request fanout histogram
system.tol2bus.reqLayer0.occupancy         1008371547                       # Layer occupancy (ticks)
system.tol2bus.reqLayer0.utilization              5.9                       # Layer utilization (%)
system.tol2bus.respLayer0.occupancy            601999                       # Layer occupancy (ticks)
system.tol2bus.respLayer0.utilization             0.0                       # Layer utilization (%)
system.tol2bus.respLayer1.occupancy           1741491                       # Layer occupancy (ticks)
system.tol2bus.respLayer1.utilization             0.0                       # Layer utilization (%)
system.tol2bus.respLayer4.occupancy           2136902                       # Layer occupancy (ticks)
system.tol2bus.respLayer4.utilization             0.0                       # Layer utilization (%)
system.tol2bus.respLayer5.occupancy         219354612                       # Layer occupancy (ticks)
system.tol2bus.respLayer5.utilization             1.3                       # Layer utilization (%)
system.tol2bus.respLayer8.occupancy           2264393                       # Layer occupancy (ticks)
system.tol2bus.respLayer8.utilization             0.0                       # Layer utilization (%)
system.tol2bus.respLayer9.occupancy         304244912                       # Layer occupancy (ticks)
system.tol2bus.respLayer9.utilization             1.8                       # Layer utilization (%)
system.tol2bus.respLayer12.occupancy          2300411                       # Layer occupancy (ticks)
system.tol2bus.respLayer12.utilization            0.0                       # Layer utilization (%)
system.tol2bus.respLayer13.occupancy        370155433                       # Layer occupancy (ticks)
system.tol2bus.respLayer13.utilization            2.2                       # Layer utilization (%)
system.tol2bus.respLayer16.occupancy          2037474                       # Layer occupancy (ticks)
system.tol2bus.respLayer16.utilization            0.0                       # Layer utilization (%)
system.tol2bus.respLayer17.occupancy        431846214                       # Layer occupancy (ticks)
system.tol2bus.respLayer17.utilization            2.5                       # Layer utilization (%)
system.tol2bus.respLayer20.occupancy          2680485                       # Layer occupancy (ticks)
system.tol2bus.respLayer20.utilization            0.0                       # Layer utilization (%)
system.tol2bus.respLayer21.occupancy        448560108                       # Layer occupancy (ticks)
system.tol2bus.respLayer21.utilization            2.6                       # Layer utilization (%)
system.tol2bus.respLayer24.occupancy          2129474                       # Layer occupancy (ticks)
system.tol2bus.respLayer24.utilization            0.0                       # Layer utilization (%)
system.tol2bus.respLayer25.occupancy        415036575                       # Layer occupancy (ticks)
system.tol2bus.respLayer25.utilization            2.4                       # Layer utilization (%)
system.tol2bus.respLayer28.occupancy          2403493                       # Layer occupancy (ticks)
system.tol2bus.respLayer28.utilization            0.0                       # Layer utilization (%)
system.tol2bus.respLayer29.occupancy        416231205                       # Layer occupancy (ticks)
system.tol2bus.respLayer29.utilization            2.4                       # Layer utilization (%)
system.tol2bus.respLayer32.occupancy          2065992                       # Layer occupancy (ticks)
system.tol2bus.respLayer32.utilization            0.0                       # Layer utilization (%)
system.tol2bus.respLayer33.occupancy        272280909                       # Layer occupancy (ticks)
system.tol2bus.respLayer33.utilization            1.6                       # Layer utilization (%)

---------- End Simulation Statistics   ----------
