
---------- Begin Simulation Statistics ----------
sim_seconds                                  0.040023                       # Number of seconds simulated
sim_ticks                                 40022967000                       # Number of ticks simulated
final_tick                                40022967000                       # Number of ticks from beginning of simulation (restored from checkpoints and never reset)
sim_freq                                 1000000000000                       # Frequency of simulated ticks
host_inst_rate                                 190553                       # Simulator instruction rate (inst/s)
host_op_rate                                   197880                       # Simulator op (including micro ops) rate (op/s)
host_tick_rate                               52758123                       # Simulator tick rate (ticks/s)
host_mem_usage                                 685824                       # Number of bytes of host memory used
host_seconds                                   758.61                       # Real time elapsed on the host
sim_insts                                   144556145                       # Number of instructions simulated
sim_ops                                     150114053                       # Number of ops (including micro ops) simulated
system.voltage_domain.voltage                       1                       # Voltage in Volts
system.clk_domain.clock                          1000                       # Clock period in ticks
system.physmem.bytes_read::cpu0.inst            20288                       # Number of bytes read from this memory
system.physmem.bytes_read::cpu0.data            16896                       # Number of bytes read from this memory
system.physmem.bytes_read::cpu1.inst             9856                       # Number of bytes read from this memory
system.physmem.bytes_read::cpu1.data            99008                       # Number of bytes read from this memory
system.physmem.bytes_read::cpu2.inst             9728                       # Number of bytes read from this memory
system.physmem.bytes_read::cpu2.data            99264                       # Number of bytes read from this memory
system.physmem.bytes_read::total               255040                       # Number of bytes read from this memory
system.physmem.bytes_inst_read::cpu0.inst        20288                       # Number of instructions bytes read from this memory
system.physmem.bytes_inst_read::cpu1.inst         9856                       # Number of instructions bytes read from this memory
system.physmem.bytes_inst_read::cpu2.inst         9728                       # Number of instructions bytes read from this memory
system.physmem.bytes_inst_read::total           39872                       # Number of instructions bytes read from this memory
system.physmem.num_reads::cpu0.inst               317                       # Number of read requests responded to by this memory
system.physmem.num_reads::cpu0.data               264                       # Number of read requests responded to by this memory
system.physmem.num_reads::cpu1.inst               154                       # Number of read requests responded to by this memory
system.physmem.num_reads::cpu1.data              1547                       # Number of read requests responded to by this memory
system.physmem.num_reads::cpu2.inst               152                       # Number of read requests responded to by this memory
system.physmem.num_reads::cpu2.data              1551                       # Number of read requests responded to by this memory
system.physmem.num_reads::total                  3985                       # Number of read requests responded to by this memory
system.physmem.bw_read::cpu0.inst              506909                       # Total read bandwidth from this memory (bytes/s)
system.physmem.bw_read::cpu0.data              422158                       # Total read bandwidth from this memory (bytes/s)
system.physmem.bw_read::cpu1.inst              246259                       # Total read bandwidth from this memory (bytes/s)
system.physmem.bw_read::cpu1.data             2473780                       # Total read bandwidth from this memory (bytes/s)
system.physmem.bw_read::cpu2.inst              243060                       # Total read bandwidth from this memory (bytes/s)
system.physmem.bw_read::cpu2.data             2480176                       # Total read bandwidth from this memory (bytes/s)
system.physmem.bw_read::total                 6372341                       # Total read bandwidth from this memory (bytes/s)
system.physmem.bw_inst_read::cpu0.inst         506909                       # Instruction read bandwidth from this memory (bytes/s)
system.physmem.bw_inst_read::cpu1.inst         246259                       # Instruction read bandwidth from this memory (bytes/s)
system.physmem.bw_inst_read::cpu2.inst         243060                       # Instruction read bandwidth from this memory (bytes/s)
system.physmem.bw_inst_read::total             996228                       # Instruction read bandwidth from this memory (bytes/s)
system.physmem.bw_total::cpu0.inst             506909                       # Total bandwidth to/from this memory (bytes/s)
system.physmem.bw_total::cpu0.data             422158                       # Total bandwidth to/from this memory (bytes/s)
system.physmem.bw_total::cpu1.inst             246259                       # Total bandwidth to/from this memory (bytes/s)
system.physmem.bw_total::cpu1.data            2473780                       # Total bandwidth to/from this memory (bytes/s)
system.physmem.bw_total::cpu2.inst             243060                       # Total bandwidth to/from this memory (bytes/s)
system.physmem.bw_total::cpu2.data            2480176                       # Total bandwidth to/from this memory (bytes/s)
system.physmem.bw_total::total                6372341                       # Total bandwidth to/from this memory (bytes/s)
system.cpu0.branchPred.lookups               20001287                       # Number of BP lookups
system.cpu0.branchPred.condPredicted         20000527                       # Number of conditional branches predicted
system.cpu0.branchPred.condIncorrect              515                       # Number of conditional branches incorrect
system.cpu0.branchPred.BTBLookups            19999864                       # Number of BTB lookups
system.cpu0.branchPred.BTBHits               19999524                       # Number of BTB hits
system.cpu0.branchPred.BTBCorrect                   0                       # Number of correct BTB predictions (this stat may not work properly.
system.cpu0.branchPred.BTBHitPct            99.998300                       # BTB Hit Percentage
system.cpu0.branchPred.usedRAS                    241                       # Number of times the RAS was used to get a target.
system.cpu0.branchPred.RASInCorrect                51                       # Number of incorrect RAS predictions.
system.cpu0.dstage2_mmu.stage2_tlb.walker.walks            0                       # Table walker walks requested
system.cpu0.dstage2_mmu.stage2_tlb.walker.walkRequestOrigin_Requested::Data            0                       # Table walker requests started/completed, data/inst
system.cpu0.dstage2_mmu.stage2_tlb.walker.walkRequestOrigin_Requested::Inst            0                       # Table walker requests started/completed, data/inst
system.cpu0.dstage2_mmu.stage2_tlb.walker.walkRequestOrigin_Requested::total            0                       # Table walker requests started/completed, data/inst
system.cpu0.dstage2_mmu.stage2_tlb.walker.walkRequestOrigin_Completed::Data            0                       # Table walker requests started/completed, data/inst
system.cpu0.dstage2_mmu.stage2_tlb.walker.walkRequestOrigin_Completed::Inst            0                       # Table walker requests started/completed, data/inst
system.cpu0.dstage2_mmu.stage2_tlb.walker.walkRequestOrigin_Completed::total            0                       # Table walker requests started/completed, data/inst
system.cpu0.dstage2_mmu.stage2_tlb.walker.walkRequestOrigin::total            0                       # Table walker requests started/completed, data/inst
system.cpu0.dstage2_mmu.stage2_tlb.inst_hits            0                       # ITB inst hits
system.cpu0.dstage2_mmu.stage2_tlb.inst_misses            0                       # ITB inst misses
system.cpu0.dstage2_mmu.stage2_tlb.read_hits            0                       # DTB read hits
system.cpu0.dstage2_mmu.stage2_tlb.read_misses            0                       # DTB read misses
system.cpu0.dstage2_mmu.stage2_tlb.write_hits            0                       # DTB write hits
system.cpu0.dstage2_mmu.stage2_tlb.write_misses            0                       # DTB write misses
system.cpu0.dstage2_mmu.stage2_tlb.flush_tlb            0                       # Number of times complete TLB was flushed
system.cpu0.dstage2_mmu.stage2_tlb.flush_tlb_mva            0                       # Number of times TLB was flushed by MVA
system.cpu0.dstage2_mmu.stage2_tlb.flush_tlb_mva_asid            0                       # Number of times TLB was flushed by MVA & ASID
system.cpu0.dstage2_mmu.stage2_tlb.flush_tlb_asid            0                       # Number of times TLB was flushed by ASID
system.cpu0.dstage2_mmu.stage2_tlb.flush_entries            0                       # Number of entries that have been flushed from TLB
system.cpu0.dstage2_mmu.stage2_tlb.align_faults            0                       # Number of TLB faults due to alignment restrictions
system.cpu0.dstage2_mmu.stage2_tlb.prefetch_faults            0                       # Number of TLB faults due to prefetch
system.cpu0.dstage2_mmu.stage2_tlb.domain_faults            0                       # Number of TLB faults due to domain restrictions
system.cpu0.dstage2_mmu.stage2_tlb.perms_faults            0                       # Number of TLB faults due to permissions restrictions
system.cpu0.dstage2_mmu.stage2_tlb.read_accesses            0                       # DTB read accesses
system.cpu0.dstage2_mmu.stage2_tlb.write_accesses            0                       # DTB write accesses
system.cpu0.dstage2_mmu.stage2_tlb.inst_accesses            0                       # ITB inst accesses
system.cpu0.dstage2_mmu.stage2_tlb.hits             0                       # DTB hits
system.cpu0.dstage2_mmu.stage2_tlb.misses            0                       # DTB misses
system.cpu0.dstage2_mmu.stage2_tlb.accesses            0                       # DTB accesses
system.cpu0.dtb.walker.walks                        0                       # Table walker walks requested
system.cpu0.dtb.walker.walkRequestOrigin_Requested::Data            0                       # Table walker requests started/completed, data/inst
system.cpu0.dtb.walker.walkRequestOrigin_Requested::Inst            0                       # Table walker requests started/completed, data/inst
system.cpu0.dtb.walker.walkRequestOrigin_Requested::total            0                       # Table walker requests started/completed, data/inst
system.cpu0.dtb.walker.walkRequestOrigin_Completed::Data            0                       # Table walker requests started/completed, data/inst
system.cpu0.dtb.walker.walkRequestOrigin_Completed::Inst            0                       # Table walker requests started/completed, data/inst
system.cpu0.dtb.walker.walkRequestOrigin_Completed::total            0                       # Table walker requests started/completed, data/inst
system.cpu0.dtb.walker.walkRequestOrigin::total            0                       # Table walker requests started/completed, data/inst
system.cpu0.dtb.inst_hits                           0                       # ITB inst hits
system.cpu0.dtb.inst_misses                         0                       # ITB inst misses
system.cpu0.dtb.read_hits                           0                       # DTB read hits
system.cpu0.dtb.read_misses                         0                       # DTB read misses
system.cpu0.dtb.write_hits                          0                       # DTB write hits
system.cpu0.dtb.write_misses                        0                       # DTB write misses
system.cpu0.dtb.flush_tlb                           0                       # Number of times complete TLB was flushed
system.cpu0.dtb.flush_tlb_mva                       0                       # Number of times TLB was flushed by MVA
system.cpu0.dtb.flush_tlb_mva_asid                  0                       # Number of times TLB was flushed by MVA & ASID
system.cpu0.dtb.flush_tlb_asid                      0                       # Number of times TLB was flushed by ASID
system.cpu0.dtb.flush_entries                       0                       # Number of entries that have been flushed from TLB
system.cpu0.dtb.align_faults                        0                       # Number of TLB faults due to alignment restrictions
system.cpu0.dtb.prefetch_faults                     0                       # Number of TLB faults due to prefetch
system.cpu0.dtb.domain_faults                       0                       # Number of TLB faults due to domain restrictions
system.cpu0.dtb.perms_faults                        0                       # Number of TLB faults due to permissions restrictions
system.cpu0.dtb.read_accesses                       0                       # DTB read accesses
system.cpu0.dtb.write_accesses                      0                       # DTB write accesses
system.cpu0.dtb.inst_accesses                       0                       # ITB inst accesses
system.cpu0.dtb.hits                                0                       # DTB hits
system.cpu0.dtb.misses                              0                       # DTB misses
system.cpu0.dtb.accesses                            0                       # DTB accesses
system.cpu0.istage2_mmu.stage2_tlb.walker.walks            0                       # Table walker walks requested
system.cpu0.istage2_mmu.stage2_tlb.walker.walkRequestOrigin_Requested::Data            0                       # Table walker requests started/completed, data/inst
system.cpu0.istage2_mmu.stage2_tlb.walker.walkRequestOrigin_Requested::Inst            0                       # Table walker requests started/completed, data/inst
system.cpu0.istage2_mmu.stage2_tlb.walker.walkRequestOrigin_Requested::total            0                       # Table walker requests started/completed, data/inst
system.cpu0.istage2_mmu.stage2_tlb.walker.walkRequestOrigin_Completed::Data            0                       # Table walker requests started/completed, data/inst
system.cpu0.istage2_mmu.stage2_tlb.walker.walkRequestOrigin_Completed::Inst            0                       # Table walker requests started/completed, data/inst
system.cpu0.istage2_mmu.stage2_tlb.walker.walkRequestOrigin_Completed::total            0                       # Table walker requests started/completed, data/inst
system.cpu0.istage2_mmu.stage2_tlb.walker.walkRequestOrigin::total            0                       # Table walker requests started/completed, data/inst
system.cpu0.istage2_mmu.stage2_tlb.inst_hits            0                       # ITB inst hits
system.cpu0.istage2_mmu.stage2_tlb.inst_misses            0                       # ITB inst misses
system.cpu0.istage2_mmu.stage2_tlb.read_hits            0                       # DTB read hits
system.cpu0.istage2_mmu.stage2_tlb.read_misses            0                       # DTB read misses
system.cpu0.istage2_mmu.stage2_tlb.write_hits            0                       # DTB write hits
system.cpu0.istage2_mmu.stage2_tlb.write_misses            0                       # DTB write misses
system.cpu0.istage2_mmu.stage2_tlb.flush_tlb            0                       # Number of times complete TLB was flushed
system.cpu0.istage2_mmu.stage2_tlb.flush_tlb_mva            0                       # Number of times TLB was flushed by MVA
system.cpu0.istage2_mmu.stage2_tlb.flush_tlb_mva_asid            0                       # Number of times TLB was flushed by MVA & ASID
system.cpu0.istage2_mmu.stage2_tlb.flush_tlb_asid            0                       # Number of times TLB was flushed by ASID
system.cpu0.istage2_mmu.stage2_tlb.flush_entries            0                       # Number of entries that have been flushed from TLB
system.cpu0.istage2_mmu.stage2_tlb.align_faults            0                       # Number of TLB faults due to alignment restrictions
system.cpu0.istage2_mmu.stage2_tlb.prefetch_faults            0                       # Number of TLB faults due to prefetch
system.cpu0.istage2_mmu.stage2_tlb.domain_faults            0                       # Number of TLB faults due to domain restrictions
system.cpu0.istage2_mmu.stage2_tlb.perms_faults            0                       # Number of TLB faults due to permissions restrictions
system.cpu0.istage2_mmu.stage2_tlb.read_accesses            0                       # DTB read accesses
system.cpu0.istage2_mmu.stage2_tlb.write_accesses            0                       # DTB write accesses
system.cpu0.istage2_mmu.stage2_tlb.inst_accesses            0                       # ITB inst accesses
system.cpu0.istage2_mmu.stage2_tlb.hits             0                       # DTB hits
system.cpu0.istage2_mmu.stage2_tlb.misses            0                       # DTB misses
system.cpu0.istage2_mmu.stage2_tlb.accesses            0                       # DTB accesses
system.cpu0.itb.walker.walks                        0                       # Table walker walks requested
system.cpu0.itb.walker.walkRequestOrigin_Requested::Data            0                       # Table walker requests started/completed, data/inst
system.cpu0.itb.walker.walkRequestOrigin_Requested::Inst            0                       # Table walker requests started/completed, data/inst
system.cpu0.itb.walker.walkRequestOrigin_Requested::total            0                       # Table walker requests started/completed, data/inst
system.cpu0.itb.walker.walkRequestOrigin_Completed::Data            0                       # Table walker requests started/completed, data/inst
system.cpu0.itb.walker.walkRequestOrigin_Completed::Inst            0                       # Table walker requests started/completed, data/inst
system.cpu0.itb.walker.walkRequestOrigin_Completed::total            0                       # Table walker requests started/completed, data/inst
system.cpu0.itb.walker.walkRequestOrigin::total            0                       # Table walker requests started/completed, data/inst
system.cpu0.itb.inst_hits                           0                       # ITB inst hits
system.cpu0.itb.inst_misses                         0                       # ITB inst misses
system.cpu0.itb.read_hits                           0                       # DTB read hits
system.cpu0.itb.read_misses                         0                       # DTB read misses
system.cpu0.itb.write_hits                          0                       # DTB write hits
system.cpu0.itb.write_misses                        0                       # DTB write misses
system.cpu0.itb.flush_tlb                           0                       # Number of times complete TLB was flushed
system.cpu0.itb.flush_tlb_mva                       0                       # Number of times TLB was flushed by MVA
system.cpu0.itb.flush_tlb_mva_asid                  0                       # Number of times TLB was flushed by MVA & ASID
system.cpu0.itb.flush_tlb_asid                      0                       # Number of times TLB was flushed by ASID
system.cpu0.itb.flush_entries                       0                       # Number of entries that have been flushed from TLB
system.cpu0.itb.align_faults                        0                       # Number of TLB faults due to alignment restrictions
system.cpu0.itb.prefetch_faults                     0                       # Number of TLB faults due to prefetch
system.cpu0.itb.domain_faults                       0                       # Number of TLB faults due to domain restrictions
system.cpu0.itb.perms_faults                        0                       # Number of TLB faults due to permissions restrictions
system.cpu0.itb.read_accesses                       0                       # DTB read accesses
system.cpu0.itb.write_accesses                      0                       # DTB write accesses
system.cpu0.itb.inst_accesses                       0                       # ITB inst accesses
system.cpu0.itb.hits                                0                       # DTB hits
system.cpu0.itb.misses                              0                       # DTB misses
system.cpu0.itb.accesses                            0                       # DTB accesses
system.cpu0.workload.num_syscalls               37892                       # Number of system calls
system.cpu0.numCycles                        40022968                       # number of cpu cycles simulated
system.cpu0.numWorkItemsStarted                     0                       # number of work items this cpu started
system.cpu0.numWorkItemsCompleted                   0                       # number of work items this cpu completed
system.cpu0.fetch.icacheStallCycles              7320                       # Number of cycles fetch is stalled on an Icache miss
system.cpu0.fetch.Insts                     100007600                       # Number of instructions fetch has processed
system.cpu0.fetch.Branches                   20001287                       # Number of branches that fetch encountered
system.cpu0.fetch.predictedBranches          19999765                       # Number of branches that fetch has predicted taken
system.cpu0.fetch.Cycles                     40007407                       # Number of cycles fetch has run and was not squashing or blocked
system.cpu0.fetch.SquashCycles                   1236                       # Number of cycles fetch has spent squashing
system.cpu0.fetch.PendingTrapStallCycles          149                       # Number of stall cycles due to pending traps
system.cpu0.fetch.CacheLines                     1708                       # Number of cache lines fetched
system.cpu0.fetch.IcacheSquashes                  217                       # Number of outstanding Icache misses that were squashed
system.cpu0.fetch.rateDist::samples          40015494                       # Number of instructions fetched each cycle (Total)
system.cpu0.fetch.rateDist::mean             2.499324                       # Number of instructions fetched each cycle (Total)
system.cpu0.fetch.rateDist::stdev            0.501740                       # Number of instructions fetched each cycle (Total)
system.cpu0.fetch.rateDist::underflows              0      0.00%      0.00% # Number of instructions fetched each cycle (Total)
system.cpu0.fetch.rateDist::0                   11438      0.03%      0.03% # Number of instructions fetched each cycle (Total)
system.cpu0.fetch.rateDist::1                     577      0.00%      0.03% # Number of instructions fetched each cycle (Total)
system.cpu0.fetch.rateDist::2                19999327     49.98%     50.01% # Number of instructions fetched each cycle (Total)
system.cpu0.fetch.rateDist::3                20004152     49.99%    100.00% # Number of instructions fetched each cycle (Total)
system.cpu0.fetch.rateDist::overflows               0      0.00%    100.00% # Number of instructions fetched each cycle (Total)
system.cpu0.fetch.rateDist::min_value               0                       # Number of instructions fetched each cycle (Total)
system.cpu0.fetch.rateDist::max_value               3                       # Number of instructions fetched each cycle (Total)
system.cpu0.fetch.rateDist::total            40015494                       # Number of instructions fetched each cycle (Total)
system.cpu0.fetch.branchRate                 0.499745                       # Number of branch fetches per cycle
system.cpu0.fetch.rate                       2.498755                       # Number of inst fetches per cycle
system.cpu0.decode.IdleCycles                    6954                       # Number of cycles decode is idle
system.cpu0.decode.BlockedCycles                 5012                       # Number of cycles decode is blocked
system.cpu0.decode.RunCycles                 40002363                       # Number of cycles decode is running
system.cpu0.decode.UnblockCycles                  721                       # Number of cycles decode is unblocking
system.cpu0.decode.SquashCycles                   444                       # Number of cycles decode is squashing
system.cpu0.decode.BranchResolved                 318                       # Number of times decode resolved a branch
system.cpu0.decode.BranchMispred                  181                       # Number of times decode detected a branch misprediction
system.cpu0.decode.DecodedInsts             100009464                       # Number of instructions handled by decode
system.cpu0.decode.SquashedInsts                  434                       # Number of squashed instructions handled by decode
system.cpu0.rename.SquashCycles                   444                       # Number of cycles rename is squashing
system.cpu0.rename.IdleCycles                    7537                       # Number of cycles rename is idle
system.cpu0.rename.BlockCycles                    528                       # Number of cycles rename is blocking
system.cpu0.rename.serializeStallCycles          1769                       # count of cycles rename stalled for serializing inst
system.cpu0.rename.RunCycles                 40002396                       # Number of cycles rename is running
system.cpu0.rename.UnblockCycles                 2820                       # Number of cycles rename is unblocking
system.cpu0.rename.RenamedInsts             100008694                       # Number of instructions processed by rename
system.cpu0.rename.IQFullEvents                    16                       # Number of times rename has blocked due to IQ full
system.cpu0.rename.SQFullEvents                  2671                       # Number of times rename has blocked due to SQ full
system.cpu0.rename.RenamedOperands          100010193                       # Number of destination operands rename has renamed
system.cpu0.rename.RenameLookups            460044827                       # Number of register rename lookups that rename has made
system.cpu0.rename.int_rename_lookups       100013895                       # Number of integer rename lookups
system.cpu0.rename.fp_rename_lookups               16                       # Number of floating rename lookups
system.cpu0.rename.CommittedMaps            100004249                       # Number of HB maps that are committed
system.cpu0.rename.UndoneMaps                    5917                       # Number of HB maps that are undone due to squashing
system.cpu0.rename.serializingInsts                43                       # count of serializing insts renamed
system.cpu0.rename.tempSerializingInsts            42                       # count of temporary serializing insts renamed
system.cpu0.rename.skidInsts                     1172                       # count of insts added to the skid buffer
system.cpu0.memDep0.insertedLoads            39998969                       # Number of loads inserted to the mem dependence unit.
system.cpu0.memDep0.insertedStores           20002009                       # Number of stores inserted to the mem dependence unit.
system.cpu0.memDep0.conflictingLoads         19998192                       # Number of conflicting loads.
system.cpu0.memDep0.conflictingStores        19998166                       # Number of conflicting stores.
system.cpu0.iq.iqInstsAdded                 100007193                       # Number of instructions added to the IQ (excludes non-spec)
system.cpu0.iq.iqNonSpecInstsAdded                 63                       # Number of non-speculative instructions added to the IQ
system.cpu0.iq.iqInstsIssued                100005502                       # Number of instructions issued
system.cpu0.iq.iqSquashedInstsIssued              288                       # Number of squashed instructions issued
system.cpu0.iq.iqSquashedInstsExamined           3991                       # Number of squashed instructions iterated over during squash; mainly for profiling
system.cpu0.iq.iqSquashedOperandsExamined        10265                       # Number of squashed operands that are examined and possibly removed from graph
system.cpu0.iq.iqSquashedNonSpecRemoved             3                       # Number of squashed non-spec instructions that were removed
system.cpu0.iq.issued_per_cycle::samples     40015494                       # Number of insts issued each cycle
system.cpu0.iq.issued_per_cycle::mean        2.499169                       # Number of insts issued each cycle
system.cpu0.iq.issued_per_cycle::stdev       0.708383                       # Number of insts issued each cycle
system.cpu0.iq.issued_per_cycle::underflows            0      0.00%      0.00% # Number of insts issued each cycle
system.cpu0.iq.issued_per_cycle::0              11925      0.03%      0.03% # Number of insts issued each cycle
system.cpu0.iq.issued_per_cycle::1            5002320     12.50%     12.53% # Number of insts issued each cycle
system.cpu0.iq.issued_per_cycle::2           10000565     24.99%     37.52% # Number of insts issued each cycle
system.cpu0.iq.issued_per_cycle::3           25000684     62.48%    100.00% # Number of insts issued each cycle
system.cpu0.iq.issued_per_cycle::overflows            0      0.00%    100.00% # Number of insts issued each cycle
system.cpu0.iq.issued_per_cycle::min_value            0                       # Number of insts issued each cycle
system.cpu0.iq.issued_per_cycle::max_value            3                       # Number of insts issued each cycle
system.cpu0.iq.issued_per_cycle::total       40015494                       # Number of insts issued each cycle
system.cpu0.iq.fu_full::No_OpClass                  0                       # attempts to use FU when none available
system.cpu0.iq.fu_full::IntAlu                      0                       # attempts to use FU when none available
system.cpu0.iq.fu_full::IntMult                     0                       # attempts to use FU when none available
system.cpu0.iq.fu_full::IntDiv                      0                       # attempts to use FU when none available
system.cpu0.iq.fu_full::FloatAdd                    0                       # attempts to use FU when none available
system.cpu0.iq.fu_full::FloatCmp                    0                       # attempts to use FU when none available
system.cpu0.iq.fu_full::FloatCvt                    0                       # attempts to use FU when none available
system.cpu0.iq.fu_full::FloatMult                   0                       # attempts to use FU when none available
system.cpu0.iq.fu_full::FloatDiv                    0                       # attempts to use FU when none available
system.cpu0.iq.fu_full::FloatSqrt                   0                       # attempts to use FU when none available
system.cpu0.iq.fu_full::SimdAdd                     0                       # attempts to use FU when none available
system.cpu0.iq.fu_full::SimdAddAcc                  0                       # attempts to use FU when none available
system.cpu0.iq.fu_full::SimdAlu                     0                       # attempts to use FU when none available
system.cpu0.iq.fu_full::SimdCmp                     0                       # attempts to use FU when none available
system.cpu0.iq.fu_full::SimdCvt                     0                       # attempts to use FU when none available
system.cpu0.iq.fu_full::SimdMisc                    0                       # attempts to use FU when none available
system.cpu0.iq.fu_full::SimdMult                    0                       # attempts to use FU when none available
system.cpu0.iq.fu_full::SimdMultAcc                 0                       # attempts to use FU when none available
system.cpu0.iq.fu_full::SimdShift                   0                       # attempts to use FU when none available
system.cpu0.iq.fu_full::SimdShiftAcc                0                       # attempts to use FU when none available
system.cpu0.iq.fu_full::SimdSqrt                    0                       # attempts to use FU when none available
system.cpu0.iq.fu_full::SimdFloatAdd                0                       # attempts to use FU when none available
system.cpu0.iq.fu_full::SimdFloatAlu                0                       # attempts to use FU when none available
system.cpu0.iq.fu_full::SimdFloatCmp                0                       # attempts to use FU when none available
system.cpu0.iq.fu_full::SimdFloatCvt                0                       # attempts to use FU when none available
system.cpu0.iq.fu_full::SimdFloatDiv                0                       # attempts to use FU when none available
system.cpu0.iq.fu_full::SimdFloatMisc               0                       # attempts to use FU when none available
system.cpu0.iq.fu_full::SimdFloatMult               0                       # attempts to use FU when none available
system.cpu0.iq.fu_full::SimdFloatMultAcc            0                       # attempts to use FU when none available
system.cpu0.iq.fu_full::SimdFloatSqrt               0                       # attempts to use FU when none available
system.cpu0.iq.fu_full::MemRead                     0                       # attempts to use FU when none available
system.cpu0.iq.fu_full::MemWrite                    0                       # attempts to use FU when none available
system.cpu0.iq.fu_full::IprAccess                   0                       # attempts to use FU when none available
system.cpu0.iq.fu_full::InstPrefetch                0                       # attempts to use FU when none available
system.cpu0.iq.FU_type_0::No_OpClass                0      0.00%      0.00% # Type of FU issued
system.cpu0.iq.FU_type_0::IntAlu             40005056     40.00%     40.00% # Type of FU issued
system.cpu0.iq.FU_type_0::IntMult                   6      0.00%     40.00% # Type of FU issued
system.cpu0.iq.FU_type_0::IntDiv                    0      0.00%     40.00% # Type of FU issued
system.cpu0.iq.FU_type_0::FloatAdd                  0      0.00%     40.00% # Type of FU issued
system.cpu0.iq.FU_type_0::FloatCmp                  0      0.00%     40.00% # Type of FU issued
system.cpu0.iq.FU_type_0::FloatCvt                  0      0.00%     40.00% # Type of FU issued
system.cpu0.iq.FU_type_0::FloatMult                 0      0.00%     40.00% # Type of FU issued
system.cpu0.iq.FU_type_0::FloatDiv                  0      0.00%     40.00% # Type of FU issued
system.cpu0.iq.FU_type_0::FloatSqrt                 0      0.00%     40.00% # Type of FU issued
system.cpu0.iq.FU_type_0::SimdAdd                   0      0.00%     40.00% # Type of FU issued
system.cpu0.iq.FU_type_0::SimdAddAcc                0      0.00%     40.00% # Type of FU issued
system.cpu0.iq.FU_type_0::SimdAlu                   0      0.00%     40.00% # Type of FU issued
system.cpu0.iq.FU_type_0::SimdCmp                   0      0.00%     40.00% # Type of FU issued
system.cpu0.iq.FU_type_0::SimdCvt                   0      0.00%     40.00% # Type of FU issued
system.cpu0.iq.FU_type_0::SimdMisc                  0      0.00%     40.00% # Type of FU issued
system.cpu0.iq.FU_type_0::SimdMult                  0      0.00%     40.00% # Type of FU issued
system.cpu0.iq.FU_type_0::SimdMultAcc               0      0.00%     40.00% # Type of FU issued
system.cpu0.iq.FU_type_0::SimdShift                 0      0.00%     40.00% # Type of FU issued
system.cpu0.iq.FU_type_0::SimdShiftAcc              0      0.00%     40.00% # Type of FU issued
system.cpu0.iq.FU_type_0::SimdSqrt                  0      0.00%     40.00% # Type of FU issued
system.cpu0.iq.FU_type_0::SimdFloatAdd              0      0.00%     40.00% # Type of FU issued
system.cpu0.iq.FU_type_0::SimdFloatAlu              0      0.00%     40.00% # Type of FU issued
system.cpu0.iq.FU_type_0::SimdFloatCmp              0      0.00%     40.00% # Type of FU issued
system.cpu0.iq.FU_type_0::SimdFloatCvt              0      0.00%     40.00% # Type of FU issued
system.cpu0.iq.FU_type_0::SimdFloatDiv              0      0.00%     40.00% # Type of FU issued
system.cpu0.iq.FU_type_0::SimdFloatMisc             3      0.00%     40.00% # Type of FU issued
system.cpu0.iq.FU_type_0::SimdFloatMult             0      0.00%     40.00% # Type of FU issued
system.cpu0.iq.FU_type_0::SimdFloatMultAcc            0      0.00%     40.00% # Type of FU issued
system.cpu0.iq.FU_type_0::SimdFloatSqrt             0      0.00%     40.00% # Type of FU issued
system.cpu0.iq.FU_type_0::MemRead            39998636     40.00%     80.00% # Type of FU issued
system.cpu0.iq.FU_type_0::MemWrite           20001801     20.00%    100.00% # Type of FU issued
system.cpu0.iq.FU_type_0::IprAccess                 0      0.00%    100.00% # Type of FU issued
system.cpu0.iq.FU_type_0::InstPrefetch              0      0.00%    100.00% # Type of FU issued
system.cpu0.iq.FU_type_0::total             100005502                       # Type of FU issued
system.cpu0.iq.rate                          2.498703                       # Inst issue rate
system.cpu0.iq.fu_busy_cnt                          0                       # FU busy when requested
system.cpu0.iq.fu_busy_rate                         0                       # FU busy rate (busy events/executed inst)
system.cpu0.iq.int_inst_queue_reads         240026751                       # Number of integer instruction queue reads
system.cpu0.iq.int_inst_queue_writes        100011321                       # Number of integer instruction queue writes
system.cpu0.iq.int_inst_queue_wakeup_accesses    100004811                       # Number of integer instruction queue wakeup accesses
system.cpu0.iq.fp_inst_queue_reads                 32                       # Number of floating instruction queue reads
system.cpu0.iq.fp_inst_queue_writes                16                       # Number of floating instruction queue writes
system.cpu0.iq.fp_inst_queue_wakeup_accesses           16                       # Number of floating instruction queue wakeup accesses
system.cpu0.iq.int_alu_accesses             100005486                       # Number of integer alu accesses
system.cpu0.iq.fp_alu_accesses                     16                       # Number of floating point alu accesses
system.cpu0.iew.lsq.thread0.forwLoads        19998355                       # Number of loads that had data forwarded from stores
system.cpu0.iew.lsq.thread0.invAddrLoads            0                       # Number of loads ignored due to an invalid address
system.cpu0.iew.lsq.thread0.squashedLoads         1086                       # Number of loads squashed
system.cpu0.iew.lsq.thread0.ignoredResponses            2                       # Number of memory responses ignored because the instruction is squashed
system.cpu0.iew.lsq.thread0.memOrderViolation           90                       # Number of memory ordering violations
system.cpu0.iew.lsq.thread0.squashedStores          401                       # Number of stores squashed
system.cpu0.iew.lsq.thread0.invAddrSwpfs            0                       # Number of software prefetches ignored due to an invalid address
system.cpu0.iew.lsq.thread0.blockedLoads            0                       # Number of blocked loads due to partial load-store forwarding
system.cpu0.iew.lsq.thread0.rescheduledLoads            3                       # Number of loads that were rescheduled
system.cpu0.iew.lsq.thread0.cacheBlocked            0                       # Number of times an access to memory failed due to the cache being blocked
system.cpu0.iew.iewIdleCycles                       0                       # Number of cycles IEW is idle
system.cpu0.iew.iewSquashCycles                   444                       # Number of cycles IEW is squashing
system.cpu0.iew.iewBlockCycles                    394                       # Number of cycles IEW is blocking
system.cpu0.iew.iewUnblockCycles                  134                       # Number of cycles IEW is unblocking
system.cpu0.iew.iewDispatchedInsts          100007270                       # Number of instructions dispatched to IQ
system.cpu0.iew.iewDispSquashedInsts              252                       # Number of squashed instructions skipped by dispatch
system.cpu0.iew.iewDispLoadInsts             39998969                       # Number of dispatched load instructions
system.cpu0.iew.iewDispStoreInsts            20002009                       # Number of dispatched store instructions
system.cpu0.iew.iewDispNonSpecInsts                39                       # Number of dispatched non-speculative instructions
system.cpu0.iew.iewIQFullEvents                    11                       # Number of times the IQ has become full, causing a stall
system.cpu0.iew.iewLSQFullEvents                    0                       # Number of times the LSQ has become full, causing a stall
system.cpu0.iew.memOrderViolationEvents            90                       # Number of memory order violations
system.cpu0.iew.predictedTakenIncorrect            92                       # Number of branches that were predicted taken incorrectly
system.cpu0.iew.predictedNotTakenIncorrect          264                       # Number of branches that were predicted not taken incorrectly
system.cpu0.iew.branchMispredicts                 356                       # Number of branch mispredicts detected at execute
system.cpu0.iew.iewExecutedInsts            100005076                       # Number of executed instructions
system.cpu0.iew.iewExecLoadInsts             39998540                       # Number of load instructions executed
system.cpu0.iew.iewExecSquashedInsts              423                       # Number of squashed instructions skipped in execute
system.cpu0.iew.exec_swp                            0                       # number of swp insts executed
system.cpu0.iew.exec_nop                           14                       # number of nop insts executed
system.cpu0.iew.exec_refs                    60000224                       # number of memory reference insts executed
system.cpu0.iew.exec_branches                20000091                       # Number of branches executed
system.cpu0.iew.exec_forward_branches             733                       # Number of forward branches executed
system.cpu0.iew.exec_backward_branches       19999081                       # Number of backward branches executed
system.cpu0.iew.exec_taken_forward_branches          260                       # Number of forward branches executed that is taken
system.cpu0.iew.exec_nottaken_forward_branches          473                       # Number of forward branches executed that is not taken
system.cpu0.iew.exec_taken_backward_branches     19998885                       # Number of backward branches executed that is taken
system.cpu0.iew.exec_nottaken_backward_branches          196                       # Number of backward branches executed that is not taken
system.cpu0.iew.exec_stores                  20001684                       # Number of stores executed
system.cpu0.iew.exec_rate                    2.498692                       # Inst execution rate
system.cpu0.iew.wb_sent                     100004887                       # cumulative count of insts sent to commit
system.cpu0.iew.wb_count                    100004827                       # cumulative count of insts written-back
system.cpu0.iew.wb_producers                 60000860                       # num instructions producing a value
system.cpu0.iew.wb_consumers                 60010504                       # num instructions consuming a value
system.cpu0.iew.wb_penalized                        0                       # number of instrctions required to write to 'other' IQ
system.cpu0.iew.wb_rate                      2.498686                       # insts written-back per cycle
system.cpu0.iew.wb_fanout                    0.999839                       # average fanout of values written-back
system.cpu0.iew.wb_penalized_rate                   0                       # fraction of instructions written-back that wrote to 'other' IQ
system.cpu0.commit.commitSquashedInsts           4005                       # The number of squashed insts skipped by commit
system.cpu0.commit.commitNonSpecStalls             60                       # The number of times commit has been forced to stall to communicate backwards
system.cpu0.commit.branchMispredicts              341                       # The number of times a branch was mispredicted
system.cpu0.commit.committed_per_cycle::samples     40014766                       # Number of insts commited each cycle
system.cpu0.commit.committed_per_cycle::mean     2.499159                       # Number of insts commited each cycle
system.cpu0.commit.committed_per_cycle::stdev     1.581498                       # Number of insts commited each cycle
system.cpu0.commit.committed_per_cycle::underflows            0      0.00%      0.00% # Number of insts commited each cycle
system.cpu0.commit.committed_per_cycle::0        12720      0.03%      0.03% # Number of insts commited each cycle
system.cpu0.commit.committed_per_cycle::1     20000573     49.98%     50.01% # Number of insts commited each cycle
system.cpu0.commit.committed_per_cycle::2         1132      0.00%     50.02% # Number of insts commited each cycle
system.cpu0.commit.committed_per_cycle::3      5001328     12.50%     62.52% # Number of insts commited each cycle
system.cpu0.commit.committed_per_cycle::4      9999153     24.99%     87.50% # Number of insts commited each cycle
system.cpu0.commit.committed_per_cycle::5      4999607     12.49%    100.00% # Number of insts commited each cycle
system.cpu0.commit.committed_per_cycle::6           69      0.00%    100.00% # Number of insts commited each cycle
system.cpu0.commit.committed_per_cycle::7          109      0.00%    100.00% # Number of insts commited each cycle
system.cpu0.commit.committed_per_cycle::8           75      0.00%    100.00% # Number of insts commited each cycle
system.cpu0.commit.committed_per_cycle::overflows            0      0.00%    100.00% # Number of insts commited each cycle
system.cpu0.commit.committed_per_cycle::min_value            0                       # Number of insts commited each cycle
system.cpu0.commit.committed_per_cycle::max_value            8                       # Number of insts commited each cycle
system.cpu0.commit.committed_per_cycle::total     40014766                       # Number of insts commited each cycle
system.cpu0.commit.committedInsts           100000003                       # Number of instructions committed
system.cpu0.commit.committedOps             100003245                       # Number of ops (including micro ops) committed
system.cpu0.commit.swp_count                        0                       # Number of s/w prefetches committed
system.cpu0.commit.refs                      59999479                       # Number of memory references committed
system.cpu0.commit.loads                     39997875                       # Number of loads committed
system.cpu0.commit.membars                         24                       # Number of memory barriers committed
system.cpu0.commit.branches                  19999793                       # Number of branches committed
system.cpu0.commit.fp_insts                        16                       # Number of committed floating point instructions.
system.cpu0.commit.int_insts                 80003801                       # Number of committed integer instructions.
system.cpu0.commit.function_calls                 134                       # Number of function calls committed.
system.cpu0.commit.op_class_0::No_OpClass            0      0.00%      0.00% # Class of committed instruction
system.cpu0.commit.op_class_0::IntAlu        40003757     40.00%     40.00% # Class of committed instruction
system.cpu0.commit.op_class_0::IntMult              6      0.00%     40.00% # Class of committed instruction
system.cpu0.commit.op_class_0::IntDiv               0      0.00%     40.00% # Class of committed instruction
system.cpu0.commit.op_class_0::FloatAdd             0      0.00%     40.00% # Class of committed instruction
system.cpu0.commit.op_class_0::FloatCmp             0      0.00%     40.00% # Class of committed instruction
system.cpu0.commit.op_class_0::FloatCvt             0      0.00%     40.00% # Class of committed instruction
system.cpu0.commit.op_class_0::FloatMult            0      0.00%     40.00% # Class of committed instruction
system.cpu0.commit.op_class_0::FloatDiv             0      0.00%     40.00% # Class of committed instruction
system.cpu0.commit.op_class_0::FloatSqrt            0      0.00%     40.00% # Class of committed instruction
system.cpu0.commit.op_class_0::SimdAdd              0      0.00%     40.00% # Class of committed instruction
system.cpu0.commit.op_class_0::SimdAddAcc            0      0.00%     40.00% # Class of committed instruction
system.cpu0.commit.op_class_0::SimdAlu              0      0.00%     40.00% # Class of committed instruction
system.cpu0.commit.op_class_0::SimdCmp              0      0.00%     40.00% # Class of committed instruction
system.cpu0.commit.op_class_0::SimdCvt              0      0.00%     40.00% # Class of committed instruction
system.cpu0.commit.op_class_0::SimdMisc             0      0.00%     40.00% # Class of committed instruction
system.cpu0.commit.op_class_0::SimdMult             0      0.00%     40.00% # Class of committed instruction
system.cpu0.commit.op_class_0::SimdMultAcc            0      0.00%     40.00% # Class of committed instruction
system.cpu0.commit.op_class_0::SimdShift            0      0.00%     40.00% # Class of committed instruction
system.cpu0.commit.op_class_0::SimdShiftAcc            0      0.00%     40.00% # Class of committed instruction
system.cpu0.commit.op_class_0::SimdSqrt             0      0.00%     40.00% # Class of committed instruction
system.cpu0.commit.op_class_0::SimdFloatAdd            0      0.00%     40.00% # Class of committed instruction
system.cpu0.commit.op_class_0::SimdFloatAlu            0      0.00%     40.00% # Class of committed instruction
system.cpu0.commit.op_class_0::SimdFloatCmp            0      0.00%     40.00% # Class of committed instruction
system.cpu0.commit.op_class_0::SimdFloatCvt            0      0.00%     40.00% # Class of committed instruction
system.cpu0.commit.op_class_0::SimdFloatDiv            0      0.00%     40.00% # Class of committed instruction
system.cpu0.commit.op_class_0::SimdFloatMisc            3      0.00%     40.00% # Class of committed instruction
system.cpu0.commit.op_class_0::SimdFloatMult            0      0.00%     40.00% # Class of committed instruction
system.cpu0.commit.op_class_0::SimdFloatMultAcc            0      0.00%     40.00% # Class of committed instruction
system.cpu0.commit.op_class_0::SimdFloatSqrt            0      0.00%     40.00% # Class of committed instruction
system.cpu0.commit.op_class_0::MemRead       39997875     40.00%     80.00% # Class of committed instruction
system.cpu0.commit.op_class_0::MemWrite      20001604     20.00%    100.00% # Class of committed instruction
system.cpu0.commit.op_class_0::IprAccess            0      0.00%    100.00% # Class of committed instruction
system.cpu0.commit.op_class_0::InstPrefetch            0      0.00%    100.00% # Class of committed instruction
system.cpu0.commit.op_class_0::total        100003245                       # Class of committed instruction
system.cpu0.commit.bw_lim_events                   75                       # number cycles where commit BW limit reached
system.cpu0.rob.rob_reads                   140021784                       # The number of ROB reads
system.cpu0.rob.rob_writes                  200015252                       # The number of ROB writes
system.cpu0.timesIdled                            222                       # Number of times that the entire CPU went into an idle state and unscheduled itself
system.cpu0.idleCycles                           7474                       # Total number of cycles that the CPU has spent unscheduled due to idling
system.cpu0.committedInsts                  100000003                       # Number of Instructions Simulated
system.cpu0.committedOps                    100003245                       # Number of Ops (including micro ops) Simulated
system.cpu0.cpi                              0.400230                       # CPI: Cycles Per Instruction
system.cpu0.cpi_total                        0.400230                       # CPI: Total CPI of All Threads
system.cpu0.ipc                              2.498565                       # IPC: Instructions Per Cycle
system.cpu0.ipc_total                        2.498565                       # IPC: Total IPC of All Threads
system.cpu0.int_regfile_reads               100007574                       # number of integer regfile reads
system.cpu0.int_regfile_writes               40004103                       # number of integer regfile writes
system.cpu0.fp_regfile_reads                      336                       # number of floating regfile reads
system.cpu0.cc_regfile_reads                420010065                       # number of cc regfile reads
system.cpu0.cc_regfile_writes                60001814                       # number of cc regfile writes
system.cpu0.misc_regfile_reads               60980437                       # number of misc regfile reads
system.cpu0.misc_regfile_writes                    48                       # number of misc regfile writes
system.cpu0.dcache.tags.replacements               27                       # number of replacements
system.cpu0.dcache.tags.tagsinuse          126.926345                       # Cycle average of tags in use
system.cpu0.dcache.tags.total_refs           39998791                       # Total number of references to valid blocks.
system.cpu0.dcache.tags.sampled_refs              150                       # Sample count of references to valid blocks.
system.cpu0.dcache.tags.avg_refs         266658.606667                       # Average number of references to valid blocks.
system.cpu0.dcache.tags.warmup_cycle                0                       # Cycle when the warmup percentage was hit.
system.cpu0.dcache.tags.occ_blocks::cpu0.data   126.926345                       # Average occupied blocks per requestor
system.cpu0.dcache.tags.occ_percent::cpu0.data     0.247903                       # Average percentage of cache occupancy
system.cpu0.dcache.tags.occ_percent::total     0.247903                       # Average percentage of cache occupancy
system.cpu0.dcache.tags.occ_task_id_blocks::1024          123                       # Occupied blocks per task id
system.cpu0.dcache.tags.age_task_id_blocks_1024::4          123                       # Occupied blocks per task id
system.cpu0.dcache.tags.occ_task_id_percent::1024     0.240234                       # Percentage of cache occupancy per task id
system.cpu0.dcache.tags.tag_accesses         80003556                       # Number of tag accesses
system.cpu0.dcache.tags.data_accesses        80003556                       # Number of data accesses
system.cpu0.dcache.ReadReq_hits::cpu0.data     19999888                       # number of ReadReq hits
system.cpu0.dcache.ReadReq_hits::total       19999888                       # number of ReadReq hits
system.cpu0.dcache.WriteReq_hits::cpu0.data     19999170                       # number of WriteReq hits
system.cpu0.dcache.WriteReq_hits::total      19999170                       # number of WriteReq hits
system.cpu0.dcache.LoadLockedReq_hits::cpu0.data           20                       # number of LoadLockedReq hits
system.cpu0.dcache.LoadLockedReq_hits::total           20                       # number of LoadLockedReq hits
system.cpu0.dcache.StoreCondReq_hits::cpu0.data           23                       # number of StoreCondReq hits
system.cpu0.dcache.StoreCondReq_hits::total           23                       # number of StoreCondReq hits
system.cpu0.dcache.demand_hits::cpu0.data     39999058                       # number of demand (read+write) hits
system.cpu0.dcache.demand_hits::total        39999058                       # number of demand (read+write) hits
system.cpu0.dcache.overall_hits::cpu0.data     39999058                       # number of overall hits
system.cpu0.dcache.overall_hits::total       39999058                       # number of overall hits
system.cpu0.dcache.ReadReq_misses::cpu0.data          163                       # number of ReadReq misses
system.cpu0.dcache.ReadReq_misses::total          163                       # number of ReadReq misses
system.cpu0.dcache.WriteReq_misses::cpu0.data         2366                       # number of WriteReq misses
system.cpu0.dcache.WriteReq_misses::total         2366                       # number of WriteReq misses
system.cpu0.dcache.LoadLockedReq_misses::cpu0.data            3                       # number of LoadLockedReq misses
system.cpu0.dcache.LoadLockedReq_misses::total            3                       # number of LoadLockedReq misses
system.cpu0.dcache.demand_misses::cpu0.data         2529                       # number of demand (read+write) misses
system.cpu0.dcache.demand_misses::total          2529                       # number of demand (read+write) misses
system.cpu0.dcache.overall_misses::cpu0.data         2529                       # number of overall misses
system.cpu0.dcache.overall_misses::total         2529                       # number of overall misses
system.cpu0.dcache.ReadReq_miss_latency::cpu0.data      7941490                       # number of ReadReq miss cycles
system.cpu0.dcache.ReadReq_miss_latency::total      7941490                       # number of ReadReq miss cycles
system.cpu0.dcache.WriteReq_miss_latency::cpu0.data    118774000                       # number of WriteReq miss cycles
system.cpu0.dcache.WriteReq_miss_latency::total    118774000                       # number of WriteReq miss cycles
system.cpu0.dcache.LoadLockedReq_miss_latency::cpu0.data       133500                       # number of LoadLockedReq miss cycles
system.cpu0.dcache.LoadLockedReq_miss_latency::total       133500                       # number of LoadLockedReq miss cycles
system.cpu0.dcache.demand_miss_latency::cpu0.data    126715490                       # number of demand (read+write) miss cycles
system.cpu0.dcache.demand_miss_latency::total    126715490                       # number of demand (read+write) miss cycles
system.cpu0.dcache.overall_miss_latency::cpu0.data    126715490                       # number of overall miss cycles
system.cpu0.dcache.overall_miss_latency::total    126715490                       # number of overall miss cycles
system.cpu0.dcache.ReadReq_accesses::cpu0.data     20000051                       # number of ReadReq accesses(hits+misses)
system.cpu0.dcache.ReadReq_accesses::total     20000051                       # number of ReadReq accesses(hits+misses)
system.cpu0.dcache.WriteReq_accesses::cpu0.data     20001536                       # number of WriteReq accesses(hits+misses)
system.cpu0.dcache.WriteReq_accesses::total     20001536                       # number of WriteReq accesses(hits+misses)
system.cpu0.dcache.LoadLockedReq_accesses::cpu0.data           23                       # number of LoadLockedReq accesses(hits+misses)
system.cpu0.dcache.LoadLockedReq_accesses::total           23                       # number of LoadLockedReq accesses(hits+misses)
system.cpu0.dcache.StoreCondReq_accesses::cpu0.data           23                       # number of StoreCondReq accesses(hits+misses)
system.cpu0.dcache.StoreCondReq_accesses::total           23                       # number of StoreCondReq accesses(hits+misses)
system.cpu0.dcache.demand_accesses::cpu0.data     40001587                       # number of demand (read+write) accesses
system.cpu0.dcache.demand_accesses::total     40001587                       # number of demand (read+write) accesses
system.cpu0.dcache.overall_accesses::cpu0.data     40001587                       # number of overall (read+write) accesses
system.cpu0.dcache.overall_accesses::total     40001587                       # number of overall (read+write) accesses
system.cpu0.dcache.ReadReq_miss_rate::cpu0.data     0.000008                       # miss rate for ReadReq accesses
system.cpu0.dcache.ReadReq_miss_rate::total     0.000008                       # miss rate for ReadReq accesses
system.cpu0.dcache.WriteReq_miss_rate::cpu0.data     0.000118                       # miss rate for WriteReq accesses
system.cpu0.dcache.WriteReq_miss_rate::total     0.000118                       # miss rate for WriteReq accesses
system.cpu0.dcache.LoadLockedReq_miss_rate::cpu0.data     0.130435                       # miss rate for LoadLockedReq accesses
system.cpu0.dcache.LoadLockedReq_miss_rate::total     0.130435                       # miss rate for LoadLockedReq accesses
system.cpu0.dcache.demand_miss_rate::cpu0.data     0.000063                       # miss rate for demand accesses
system.cpu0.dcache.demand_miss_rate::total     0.000063                       # miss rate for demand accesses
system.cpu0.dcache.overall_miss_rate::cpu0.data     0.000063                       # miss rate for overall accesses
system.cpu0.dcache.overall_miss_rate::total     0.000063                       # miss rate for overall accesses
system.cpu0.dcache.ReadReq_avg_miss_latency::cpu0.data 48720.797546                       # average ReadReq miss latency
system.cpu0.dcache.ReadReq_avg_miss_latency::total 48720.797546                       # average ReadReq miss latency
system.cpu0.dcache.WriteReq_avg_miss_latency::cpu0.data 50200.338123                       # average WriteReq miss latency
system.cpu0.dcache.WriteReq_avg_miss_latency::total 50200.338123                       # average WriteReq miss latency
system.cpu0.dcache.LoadLockedReq_avg_miss_latency::cpu0.data        44500                       # average LoadLockedReq miss latency
system.cpu0.dcache.LoadLockedReq_avg_miss_latency::total        44500                       # average LoadLockedReq miss latency
system.cpu0.dcache.demand_avg_miss_latency::cpu0.data 50104.978252                       # average overall miss latency
system.cpu0.dcache.demand_avg_miss_latency::total 50104.978252                       # average overall miss latency
system.cpu0.dcache.overall_avg_miss_latency::cpu0.data 50104.978252                       # average overall miss latency
system.cpu0.dcache.overall_avg_miss_latency::total 50104.978252                       # average overall miss latency
system.cpu0.dcache.blocked_cycles::no_mshrs            0                       # number of cycles access was blocked
system.cpu0.dcache.blocked_cycles::no_targets            0                       # number of cycles access was blocked
system.cpu0.dcache.blocked::no_mshrs                0                       # number of cycles access was blocked
system.cpu0.dcache.blocked::no_targets              0                       # number of cycles access was blocked
system.cpu0.dcache.avg_blocked_cycles::no_mshrs          nan                       # average number of cycles each access was blocked
system.cpu0.dcache.avg_blocked_cycles::no_targets          nan                       # average number of cycles each access was blocked
system.cpu0.dcache.fast_writes                      0                       # number of fast writes performed
system.cpu0.dcache.cache_copies                     0                       # number of cache copies performed
system.cpu0.dcache.writebacks::writebacks           11                       # number of writebacks
system.cpu0.dcache.writebacks::total               11                       # number of writebacks
system.cpu0.dcache.ReadReq_mshr_hits::cpu0.data           53                       # number of ReadReq MSHR hits
system.cpu0.dcache.ReadReq_mshr_hits::total           53                       # number of ReadReq MSHR hits
system.cpu0.dcache.WriteReq_mshr_hits::cpu0.data         2186                       # number of WriteReq MSHR hits
system.cpu0.dcache.WriteReq_mshr_hits::total         2186                       # number of WriteReq MSHR hits
system.cpu0.dcache.LoadLockedReq_mshr_hits::cpu0.data            3                       # number of LoadLockedReq MSHR hits
system.cpu0.dcache.LoadLockedReq_mshr_hits::total            3                       # number of LoadLockedReq MSHR hits
system.cpu0.dcache.demand_mshr_hits::cpu0.data         2239                       # number of demand (read+write) MSHR hits
system.cpu0.dcache.demand_mshr_hits::total         2239                       # number of demand (read+write) MSHR hits
system.cpu0.dcache.overall_mshr_hits::cpu0.data         2239                       # number of overall MSHR hits
system.cpu0.dcache.overall_mshr_hits::total         2239                       # number of overall MSHR hits
system.cpu0.dcache.ReadReq_mshr_misses::cpu0.data          110                       # number of ReadReq MSHR misses
system.cpu0.dcache.ReadReq_mshr_misses::total          110                       # number of ReadReq MSHR misses
system.cpu0.dcache.WriteReq_mshr_misses::cpu0.data          180                       # number of WriteReq MSHR misses
system.cpu0.dcache.WriteReq_mshr_misses::total          180                       # number of WriteReq MSHR misses
system.cpu0.dcache.demand_mshr_misses::cpu0.data          290                       # number of demand (read+write) MSHR misses
system.cpu0.dcache.demand_mshr_misses::total          290                       # number of demand (read+write) MSHR misses
system.cpu0.dcache.overall_mshr_misses::cpu0.data          290                       # number of overall MSHR misses
system.cpu0.dcache.overall_mshr_misses::total          290                       # number of overall MSHR misses
system.cpu0.dcache.ReadReq_mshr_miss_latency::cpu0.data      5289006                       # number of ReadReq MSHR miss cycles
system.cpu0.dcache.ReadReq_mshr_miss_latency::total      5289006                       # number of ReadReq MSHR miss cycles
system.cpu0.dcache.WriteReq_mshr_miss_latency::cpu0.data      9946000                       # number of WriteReq MSHR miss cycles
system.cpu0.dcache.WriteReq_mshr_miss_latency::total      9946000                       # number of WriteReq MSHR miss cycles
system.cpu0.dcache.demand_mshr_miss_latency::cpu0.data     15235006                       # number of demand (read+write) MSHR miss cycles
system.cpu0.dcache.demand_mshr_miss_latency::total     15235006                       # number of demand (read+write) MSHR miss cycles
system.cpu0.dcache.overall_mshr_miss_latency::cpu0.data     15235006                       # number of overall MSHR miss cycles
system.cpu0.dcache.overall_mshr_miss_latency::total     15235006                       # number of overall MSHR miss cycles
system.cpu0.dcache.ReadReq_mshr_miss_rate::cpu0.data     0.000005                       # mshr miss rate for ReadReq accesses
system.cpu0.dcache.ReadReq_mshr_miss_rate::total     0.000005                       # mshr miss rate for ReadReq accesses
system.cpu0.dcache.WriteReq_mshr_miss_rate::cpu0.data     0.000009                       # mshr miss rate for WriteReq accesses
system.cpu0.dcache.WriteReq_mshr_miss_rate::total     0.000009                       # mshr miss rate for WriteReq accesses
system.cpu0.dcache.demand_mshr_miss_rate::cpu0.data     0.000007                       # mshr miss rate for demand accesses
system.cpu0.dcache.demand_mshr_miss_rate::total     0.000007                       # mshr miss rate for demand accesses
system.cpu0.dcache.overall_mshr_miss_rate::cpu0.data     0.000007                       # mshr miss rate for overall accesses
system.cpu0.dcache.overall_mshr_miss_rate::total     0.000007                       # mshr miss rate for overall accesses
system.cpu0.dcache.ReadReq_avg_mshr_miss_latency::cpu0.data 48081.872727                       # average ReadReq mshr miss latency
system.cpu0.dcache.ReadReq_avg_mshr_miss_latency::total 48081.872727                       # average ReadReq mshr miss latency
system.cpu0.dcache.WriteReq_avg_mshr_miss_latency::cpu0.data 55255.555556                       # average WriteReq mshr miss latency
system.cpu0.dcache.WriteReq_avg_mshr_miss_latency::total 55255.555556                       # average WriteReq mshr miss latency
system.cpu0.dcache.demand_avg_mshr_miss_latency::cpu0.data 52534.503448                       # average overall mshr miss latency
system.cpu0.dcache.demand_avg_mshr_miss_latency::total 52534.503448                       # average overall mshr miss latency
system.cpu0.dcache.overall_avg_mshr_miss_latency::cpu0.data 52534.503448                       # average overall mshr miss latency
system.cpu0.dcache.overall_avg_mshr_miss_latency::total 52534.503448                       # average overall mshr miss latency
system.cpu0.dcache.no_allocate_misses               0                       # Number of misses that were no-allocate
system.cpu0.icache.tags.replacements               49                       # number of replacements
system.cpu0.icache.tags.tagsinuse          287.918855                       # Cycle average of tags in use
system.cpu0.icache.tags.total_refs               1321                       # Total number of references to valid blocks.
system.cpu0.icache.tags.sampled_refs              337                       # Sample count of references to valid blocks.
system.cpu0.icache.tags.avg_refs             3.919881                       # Average number of references to valid blocks.
system.cpu0.icache.tags.warmup_cycle                0                       # Cycle when the warmup percentage was hit.
system.cpu0.icache.tags.occ_blocks::cpu0.inst   287.918855                       # Average occupied blocks per requestor
system.cpu0.icache.tags.occ_percent::cpu0.inst     0.562342                       # Average percentage of cache occupancy
system.cpu0.icache.tags.occ_percent::total     0.562342                       # Average percentage of cache occupancy
system.cpu0.icache.tags.occ_task_id_blocks::1024          288                       # Occupied blocks per task id
system.cpu0.icache.tags.age_task_id_blocks_1024::4          288                       # Occupied blocks per task id
system.cpu0.icache.tags.occ_task_id_percent::1024     0.562500                       # Percentage of cache occupancy per task id
system.cpu0.icache.tags.tag_accesses             3753                       # Number of tag accesses
system.cpu0.icache.tags.data_accesses            3753                       # Number of data accesses
system.cpu0.icache.ReadReq_hits::cpu0.inst         1321                       # number of ReadReq hits
system.cpu0.icache.ReadReq_hits::total           1321                       # number of ReadReq hits
system.cpu0.icache.demand_hits::cpu0.inst         1321                       # number of demand (read+write) hits
system.cpu0.icache.demand_hits::total            1321                       # number of demand (read+write) hits
system.cpu0.icache.overall_hits::cpu0.inst         1321                       # number of overall hits
system.cpu0.icache.overall_hits::total           1321                       # number of overall hits
system.cpu0.icache.ReadReq_misses::cpu0.inst          387                       # number of ReadReq misses
system.cpu0.icache.ReadReq_misses::total          387                       # number of ReadReq misses
system.cpu0.icache.demand_misses::cpu0.inst          387                       # number of demand (read+write) misses
system.cpu0.icache.demand_misses::total           387                       # number of demand (read+write) misses
system.cpu0.icache.overall_misses::cpu0.inst          387                       # number of overall misses
system.cpu0.icache.overall_misses::total          387                       # number of overall misses
system.cpu0.icache.ReadReq_miss_latency::cpu0.inst     20674498                       # number of ReadReq miss cycles
system.cpu0.icache.ReadReq_miss_latency::total     20674498                       # number of ReadReq miss cycles
system.cpu0.icache.demand_miss_latency::cpu0.inst     20674498                       # number of demand (read+write) miss cycles
system.cpu0.icache.demand_miss_latency::total     20674498                       # number of demand (read+write) miss cycles
system.cpu0.icache.overall_miss_latency::cpu0.inst     20674498                       # number of overall miss cycles
system.cpu0.icache.overall_miss_latency::total     20674498                       # number of overall miss cycles
system.cpu0.icache.ReadReq_accesses::cpu0.inst         1708                       # number of ReadReq accesses(hits+misses)
system.cpu0.icache.ReadReq_accesses::total         1708                       # number of ReadReq accesses(hits+misses)
system.cpu0.icache.demand_accesses::cpu0.inst         1708                       # number of demand (read+write) accesses
system.cpu0.icache.demand_accesses::total         1708                       # number of demand (read+write) accesses
system.cpu0.icache.overall_accesses::cpu0.inst         1708                       # number of overall (read+write) accesses
system.cpu0.icache.overall_accesses::total         1708                       # number of overall (read+write) accesses
system.cpu0.icache.ReadReq_miss_rate::cpu0.inst     0.226581                       # miss rate for ReadReq accesses
system.cpu0.icache.ReadReq_miss_rate::total     0.226581                       # miss rate for ReadReq accesses
system.cpu0.icache.demand_miss_rate::cpu0.inst     0.226581                       # miss rate for demand accesses
system.cpu0.icache.demand_miss_rate::total     0.226581                       # miss rate for demand accesses
system.cpu0.icache.overall_miss_rate::cpu0.inst     0.226581                       # miss rate for overall accesses
system.cpu0.icache.overall_miss_rate::total     0.226581                       # miss rate for overall accesses
system.cpu0.icache.ReadReq_avg_miss_latency::cpu0.inst 53422.475452                       # average ReadReq miss latency
system.cpu0.icache.ReadReq_avg_miss_latency::total 53422.475452                       # average ReadReq miss latency
system.cpu0.icache.demand_avg_miss_latency::cpu0.inst 53422.475452                       # average overall miss latency
system.cpu0.icache.demand_avg_miss_latency::total 53422.475452                       # average overall miss latency
system.cpu0.icache.overall_avg_miss_latency::cpu0.inst 53422.475452                       # average overall miss latency
system.cpu0.icache.overall_avg_miss_latency::total 53422.475452                       # average overall miss latency
system.cpu0.icache.blocked_cycles::no_mshrs           11                       # number of cycles access was blocked
system.cpu0.icache.blocked_cycles::no_targets            0                       # number of cycles access was blocked
system.cpu0.icache.blocked::no_mshrs                1                       # number of cycles access was blocked
system.cpu0.icache.blocked::no_targets              0                       # number of cycles access was blocked
system.cpu0.icache.avg_blocked_cycles::no_mshrs           11                       # average number of cycles each access was blocked
system.cpu0.icache.avg_blocked_cycles::no_targets          nan                       # average number of cycles each access was blocked
system.cpu0.icache.fast_writes                      0                       # number of fast writes performed
system.cpu0.icache.cache_copies                     0                       # number of cache copies performed
system.cpu0.icache.ReadReq_mshr_hits::cpu0.inst           50                       # number of ReadReq MSHR hits
system.cpu0.icache.ReadReq_mshr_hits::total           50                       # number of ReadReq MSHR hits
system.cpu0.icache.demand_mshr_hits::cpu0.inst           50                       # number of demand (read+write) MSHR hits
system.cpu0.icache.demand_mshr_hits::total           50                       # number of demand (read+write) MSHR hits
system.cpu0.icache.overall_mshr_hits::cpu0.inst           50                       # number of overall MSHR hits
system.cpu0.icache.overall_mshr_hits::total           50                       # number of overall MSHR hits
system.cpu0.icache.ReadReq_mshr_misses::cpu0.inst          337                       # number of ReadReq MSHR misses
system.cpu0.icache.ReadReq_mshr_misses::total          337                       # number of ReadReq MSHR misses
system.cpu0.icache.demand_mshr_misses::cpu0.inst          337                       # number of demand (read+write) MSHR misses
system.cpu0.icache.demand_mshr_misses::total          337                       # number of demand (read+write) MSHR misses
system.cpu0.icache.overall_mshr_misses::cpu0.inst          337                       # number of overall MSHR misses
system.cpu0.icache.overall_mshr_misses::total          337                       # number of overall MSHR misses
system.cpu0.icache.ReadReq_mshr_miss_latency::cpu0.inst     17916502                       # number of ReadReq MSHR miss cycles
system.cpu0.icache.ReadReq_mshr_miss_latency::total     17916502                       # number of ReadReq MSHR miss cycles
system.cpu0.icache.demand_mshr_miss_latency::cpu0.inst     17916502                       # number of demand (read+write) MSHR miss cycles
system.cpu0.icache.demand_mshr_miss_latency::total     17916502                       # number of demand (read+write) MSHR miss cycles
system.cpu0.icache.overall_mshr_miss_latency::cpu0.inst     17916502                       # number of overall MSHR miss cycles
system.cpu0.icache.overall_mshr_miss_latency::total     17916502                       # number of overall MSHR miss cycles
system.cpu0.icache.ReadReq_mshr_miss_rate::cpu0.inst     0.197307                       # mshr miss rate for ReadReq accesses
system.cpu0.icache.ReadReq_mshr_miss_rate::total     0.197307                       # mshr miss rate for ReadReq accesses
system.cpu0.icache.demand_mshr_miss_rate::cpu0.inst     0.197307                       # mshr miss rate for demand accesses
system.cpu0.icache.demand_mshr_miss_rate::total     0.197307                       # mshr miss rate for demand accesses
system.cpu0.icache.overall_mshr_miss_rate::cpu0.inst     0.197307                       # mshr miss rate for overall accesses
system.cpu0.icache.overall_mshr_miss_rate::total     0.197307                       # mshr miss rate for overall accesses
system.cpu0.icache.ReadReq_avg_mshr_miss_latency::cpu0.inst 53164.694362                       # average ReadReq mshr miss latency
system.cpu0.icache.ReadReq_avg_mshr_miss_latency::total 53164.694362                       # average ReadReq mshr miss latency
system.cpu0.icache.demand_avg_mshr_miss_latency::cpu0.inst 53164.694362                       # average overall mshr miss latency
system.cpu0.icache.demand_avg_mshr_miss_latency::total 53164.694362                       # average overall mshr miss latency
[...]
system.l2.ReadReq_mshr_miss_latency::total     40614500                       # number of ReadReq MSHR miss cycles
system.l2.UpgradeReq_mshr_miss_latency::cpu1.data   3382040276                       # number of UpgradeReq MSHR miss cycles
system.l2.UpgradeReq_mshr_miss_latency::cpu2.data   3040141398                       # number of UpgradeReq MSHR miss cycles
system.l2.UpgradeReq_mshr_miss_latency::total   6422181674                       # number of UpgradeReq MSHR miss cycles
system.l2.SCUpgradeReq_mshr_miss_latency::cpu1.data   1050311800                       # number of SCUpgradeReq MSHR miss cycles
system.l2.SCUpgradeReq_mshr_miss_latency::cpu2.data    825308676                       # number of SCUpgradeReq MSHR miss cycles
system.l2.SCUpgradeReq_mshr_miss_latency::total   1875620476                       # number of SCUpgradeReq MSHR miss cycles
system.l2.ReadExReq_mshr_miss_latency::cpu0.data      7343000                       # number of ReadExReq MSHR miss cycles
system.l2.ReadExReq_mshr_miss_latency::cpu1.data     56795500                       # number of ReadExReq MSHR miss cycles
system.l2.ReadExReq_mshr_miss_latency::cpu2.data     57226500                       # number of ReadExReq MSHR miss cycles
system.l2.ReadExReq_mshr_miss_latency::total    121365000                       # number of ReadExReq MSHR miss cycles
system.l2.demand_mshr_miss_latency::cpu0.inst     13009000                       # number of demand (read+write) MSHR miss cycles
system.l2.demand_mshr_miss_latency::cpu0.data     10887500                       # number of demand (read+write) MSHR miss cycles
system.l2.demand_mshr_miss_latency::cpu1.inst      6272500                       # number of demand (read+write) MSHR miss cycles
system.l2.demand_mshr_miss_latency::cpu1.data     62745500                       # number of demand (read+write) MSHR miss cycles
system.l2.demand_mshr_miss_latency::cpu2.inst      6182000                       # number of demand (read+write) MSHR miss cycles
system.l2.demand_mshr_miss_latency::cpu2.data     62883000                       # number of demand (read+write) MSHR miss cycles
system.l2.demand_mshr_miss_latency::total    161979500                       # number of demand (read+write) MSHR miss cycles
system.l2.overall_mshr_miss_latency::cpu0.inst     13009000                       # number of overall MSHR miss cycles
system.l2.overall_mshr_miss_latency::cpu0.data     10887500                       # number of overall MSHR miss cycles
system.l2.overall_mshr_miss_latency::cpu1.inst      6272500                       # number of overall MSHR miss cycles
system.l2.overall_mshr_miss_latency::cpu1.data     62745500                       # number of overall MSHR miss cycles
system.l2.overall_mshr_miss_latency::cpu2.inst      6182000                       # number of overall MSHR miss cycles
system.l2.overall_mshr_miss_latency::cpu2.data     62883000                       # number of overall MSHR miss cycles
system.l2.overall_mshr_miss_latency::total    161979500                       # number of overall MSHR miss cycles
system.l2.ReadReq_mshr_miss_rate::cpu0.inst     0.940653                       # mshr miss rate for ReadReq accesses
system.l2.ReadReq_mshr_miss_rate::cpu0.data     0.763636                       # mshr miss rate for ReadReq accesses
system.l2.ReadReq_mshr_miss_rate::cpu1.inst     0.067455                       # mshr miss rate for ReadReq accesses
system.l2.ReadReq_mshr_miss_rate::cpu1.data     0.001523                       # mshr miss rate for ReadReq accesses
system.l2.ReadReq_mshr_miss_rate::cpu2.inst     0.027123                       # mshr miss rate for ReadReq accesses
system.l2.ReadReq_mshr_miss_rate::cpu2.data     0.001408                       # mshr miss rate for ReadReq accesses
system.l2.ReadReq_mshr_miss_rate::total      0.004890                       # mshr miss rate for ReadReq accesses
system.l2.UpgradeReq_mshr_miss_rate::cpu1.data     0.999976                       # mshr miss rate for UpgradeReq accesses
system.l2.UpgradeReq_mshr_miss_rate::cpu2.data     0.999947                       # mshr miss rate for UpgradeReq accesses
system.l2.UpgradeReq_mshr_miss_rate::total     0.999962                       # mshr miss rate for UpgradeReq accesses
system.l2.SCUpgradeReq_mshr_miss_rate::cpu1.data     0.999884                       # mshr miss rate for SCUpgradeReq accesses
system.l2.SCUpgradeReq_mshr_miss_rate::cpu2.data     0.999902                       # mshr miss rate for SCUpgradeReq accesses
system.l2.SCUpgradeReq_mshr_miss_rate::total     0.999892                       # mshr miss rate for SCUpgradeReq accesses
system.l2.ReadExReq_mshr_miss_rate::cpu0.data            1                       # mshr miss rate for ReadExReq accesses
system.l2.ReadExReq_mshr_miss_rate::cpu1.data     0.974270                       # mshr miss rate for ReadExReq accesses
system.l2.ReadExReq_mshr_miss_rate::cpu2.data     0.995067                       # mshr miss rate for ReadExReq accesses
system.l2.ReadExReq_mshr_miss_rate::total     0.985512                       # mshr miss rate for ReadExReq accesses
system.l2.demand_mshr_miss_rate::cpu0.inst     0.940653                       # mshr miss rate for demand accesses
system.l2.demand_mshr_miss_rate::cpu0.data     0.910345                       # mshr miss rate for demand accesses
system.l2.demand_mshr_miss_rate::cpu1.inst     0.067455                       # mshr miss rate for demand accesses
system.l2.demand_mshr_miss_rate::cpu1.data     0.015904                       # mshr miss rate for demand accesses
system.l2.demand_mshr_miss_rate::cpu2.inst     0.027123                       # mshr miss rate for demand accesses
system.l2.demand_mshr_miss_rate::cpu2.data     0.015492                       # mshr miss rate for demand accesses
system.l2.demand_mshr_miss_rate::total       0.019354                       # mshr miss rate for demand accesses
system.l2.overall_mshr_miss_rate::cpu0.inst     0.940653                       # mshr miss rate for overall accesses
system.l2.overall_mshr_miss_rate::cpu0.data     0.910345                       # mshr miss rate for overall accesses
system.l2.overall_mshr_miss_rate::cpu1.inst     0.067455                       # mshr miss rate for overall accesses
system.l2.overall_mshr_miss_rate::cpu1.data     0.015904                       # mshr miss rate for overall accesses
system.l2.overall_mshr_miss_rate::cpu2.inst     0.027123                       # mshr miss rate for overall accesses
system.l2.overall_mshr_miss_rate::cpu2.data     0.015492                       # mshr miss rate for overall accesses
system.l2.overall_mshr_miss_rate::total      0.019354                       # mshr miss rate for overall accesses
system.l2.ReadReq_avg_mshr_miss_latency::cpu0.inst 41037.854890                       # average ReadReq mshr miss latency
system.l2.ReadReq_avg_mshr_miss_latency::cpu0.data 42196.428571                       # average ReadReq mshr miss latency
system.l2.ReadReq_avg_mshr_miss_latency::cpu1.inst 40730.519481                       # average ReadReq mshr miss latency
system.l2.ReadReq_avg_mshr_miss_latency::cpu1.data 40753.424658                       # average ReadReq mshr miss latency
system.l2.ReadReq_avg_mshr_miss_latency::cpu2.inst 40671.052632                       # average ReadReq mshr miss latency
system.l2.ReadReq_avg_mshr_miss_latency::cpu2.data 40694.244604                       # average ReadReq mshr miss latency
system.l2.ReadReq_avg_mshr_miss_latency::total 40942.036290                       # average ReadReq mshr miss latency
system.l2.UpgradeReq_avg_mshr_miss_latency::cpu1.data 40525.316350                       # average UpgradeReq mshr miss latency
system.l2.UpgradeReq_avg_mshr_miss_latency::cpu2.data 40520.631213                       # average UpgradeReq mshr miss latency
system.l2.UpgradeReq_avg_mshr_miss_latency::total 40523.098358                       # average UpgradeReq mshr miss latency
system.l2.SCUpgradeReq_avg_mshr_miss_latency::cpu1.data 40513.473481                       # average SCUpgradeReq mshr miss latency
system.l2.SCUpgradeReq_avg_mshr_miss_latency::cpu2.data 40507.935408                       # average SCUpgradeReq mshr miss latency
system.l2.SCUpgradeReq_avg_mshr_miss_latency::total 40511.036437                       # average SCUpgradeReq mshr miss latency
system.l2.ReadExReq_avg_mshr_miss_latency::cpu0.data 40794.444444                       # average ReadExReq mshr miss latency
system.l2.ReadExReq_avg_mshr_miss_latency::cpu1.data 40539.257673                       # average ReadExReq mshr miss latency
system.l2.ReadExReq_avg_mshr_miss_latency::cpu2.data 40528.682720                       # average ReadExReq mshr miss latency
system.l2.ReadExReq_avg_mshr_miss_latency::total 40549.615770                       # average ReadExReq mshr miss latency
system.l2.demand_avg_mshr_miss_latency::cpu0.inst 41037.854890                       # average overall mshr miss latency
system.l2.demand_avg_mshr_miss_latency::cpu0.data 41240.530303                       # average overall mshr miss latency
system.l2.demand_avg_mshr_miss_latency::cpu1.inst 40730.519481                       # average overall mshr miss latency
system.l2.demand_avg_mshr_miss_latency::cpu1.data 40559.469942                       # average overall mshr miss latency
system.l2.demand_avg_mshr_miss_latency::cpu2.inst 40671.052632                       # average overall mshr miss latency
system.l2.demand_avg_mshr_miss_latency::cpu2.data 40543.520309                       # average overall mshr miss latency
system.l2.demand_avg_mshr_miss_latency::total 40647.302384                       # average overall mshr miss latency
system.l2.overall_avg_mshr_miss_latency::cpu0.inst 41037.854890                       # average overall mshr miss latency
system.l2.overall_avg_mshr_miss_latency::cpu0.data 41240.530303                       # average overall mshr miss latency
system.l2.overall_avg_mshr_miss_latency::cpu1.inst 40730.519481                       # average overall mshr miss latency
system.l2.overall_avg_mshr_miss_latency::cpu1.data 40559.469942                       # average overall mshr miss latency
system.l2.overall_avg_mshr_miss_latency::cpu2.inst 40671.052632                       # average overall mshr miss latency
system.l2.overall_avg_mshr_miss_latency::cpu2.data 40543.520309                       # average overall mshr miss latency
system.l2.overall_avg_mshr_miss_latency::total 40647.302384                       # average overall mshr miss latency
system.l2.no_allocate_misses                        0                       # Number of misses that were no-allocate
system.membus.trans_dist::ReadReq                 992                       # Transaction distribution
system.membus.trans_dist::ReadResp                992                       # Transaction distribution
system.membus.trans_dist::UpgradeReq           265280                       # Transaction distribution
system.membus.trans_dist::SCUpgradeReq         220587                       # Transaction distribution
system.membus.trans_dist::UpgradeResp          204781                       # Transaction distribution
system.membus.trans_dist::ReadExReq              2993                       # Transaction distribution
system.membus.trans_dist::ReadExResp             2993                       # Transaction distribution
system.membus.pkt_count_system.l2.mem_side::system.physmem.port       698618                       # Packet count per connected master and slave (bytes)
system.membus.pkt_count::total                 698618                       # Packet count per connected master and slave (bytes)
system.membus.pkt_size_system.l2.mem_side::system.physmem.port       255040                       # Cumulative packet size per connected master and slave (bytes)
system.membus.pkt_size::total                  255040                       # Cumulative packet size per connected master and slave (bytes)
system.membus.snoops                           281086                       # Total snoops (count)
system.membus.snoop_fanout::samples            489994                       # Request fanout histogram
system.membus.snoop_fanout::mean                    0                       # Request fanout histogram
system.membus.snoop_fanout::stdev                   0                       # Request fanout histogram
system.membus.snoop_fanout::underflows              0      0.00%      0.00% # Request fanout histogram
system.membus.snoop_fanout::0                  489994    100.00%    100.00% # Request fanout histogram
system.membus.snoop_fanout::1                       0      0.00%    100.00% # Request fanout histogram
system.membus.snoop_fanout::overflows               0      0.00%    100.00% # Request fanout histogram
system.membus.snoop_fanout::min_value               0                       # Request fanout histogram
system.membus.snoop_fanout::max_value               0                       # Request fanout histogram
system.membus.snoop_fanout::total              489994                       # Request fanout histogram
system.membus.reqLayer0.occupancy           310986891                       # Layer occupancy (ticks)
system.membus.reqLayer0.utilization               0.8                       # Layer utilization (%)
system.membus.respLayer1.occupancy          326657175                       # Layer occupancy (ticks)
system.membus.respLayer1.utilization              0.8                       # Layer utilization (%)
system.tol2bus.trans_dist::ReadReq             720044                       # Transaction distribution
system.tol2bus.trans_dist::ReadResp            720044                       # Transaction distribution
system.tol2bus.trans_dist::Writeback           175304                       # Transaction distribution
system.tol2bus.trans_dist::UpgradeReq          265286                       # Transaction distribution
system.tol2bus.trans_dist::SCUpgradeReq        220592                       # Transaction distribution
system.tol2bus.trans_dist::UpgradeResp         485878                       # Transaction distribution
system.tol2bus.trans_dist::SCUpgradeFailReq         1133                       # Transaction distribution
system.tol2bus.trans_dist::UpgradeFailResp         1133                       # Transaction distribution
system.tol2bus.trans_dist::ReadExReq             3174                       # Transaction distribution
system.tol2bus.trans_dist::ReadExResp            3174                       # Transaction distribution
system.tol2bus.pkt_count_system.cpu0.icache.mem_side::system.l2.cpu_side          674                       # Packet count per connected master and slave (bytes)
system.tol2bus.pkt_count_system.cpu0.dcache.mem_side::system.l2.cpu_side          591                       # Packet count per connected master and slave (bytes)
system.tol2bus.pkt_count_system.cpu1.icache.mem_side::system.l2.cpu_side         4566                       # Packet count per connected master and slave (bytes)
system.tol2bus.pkt_count_system.cpu1.dcache.mem_side::system.l2.cpu_side       892292                       # Packet count per connected master and slave (bytes)
system.tol2bus.pkt_count_system.cpu2.icache.mem_side::system.l2.cpu_side        11208                       # Packet count per connected master and slave (bytes)
system.tol2bus.pkt_count_system.cpu2.dcache.mem_side::system.l2.cpu_side       886897                       # Packet count per connected master and slave (bytes)
system.tol2bus.pkt_count::total               1796228                       # Packet count per connected master and slave (bytes)
system.tol2bus.pkt_size_system.cpu0.icache.mem_side::system.l2.cpu_side        21568                       # Cumulative packet size per connected master and slave (bytes)
system.tol2bus.pkt_size_system.cpu0.dcache.mem_side::system.l2.cpu_side        19264                       # Cumulative packet size per connected master and slave (bytes)
system.tol2bus.pkt_size_system.cpu1.icache.mem_side::system.l2.cpu_side       146112                       # Cumulative packet size per connected master and slave (bytes)
system.tol2bus.pkt_size_system.cpu1.dcache.mem_side::system.l2.cpu_side     11756864                       # Cumulative packet size per connected master and slave (bytes)
system.tol2bus.pkt_size_system.cpu2.icache.mem_side::system.l2.cpu_side       358656                       # Cumulative packet size per connected master and slave (bytes)
system.tol2bus.pkt_size_system.cpu2.dcache.mem_side::system.l2.cpu_side     12094784                       # Cumulative packet size per connected master and slave (bytes)
system.tol2bus.pkt_size::total               24397248                       # Cumulative packet size per connected master and slave (bytes)
system.tol2bus.snoops                          799534                       # Total snoops (count)
system.tol2bus.snoop_fanout::samples          1385533                       # Request fanout histogram
system.tol2bus.snoop_fanout::mean                   5                       # Request fanout histogram
system.tol2bus.snoop_fanout::stdev                  0                       # Request fanout histogram
system.tol2bus.snoop_fanout::underflows             0      0.00%      0.00% # Request fanout histogram
system.tol2bus.snoop_fanout::0                      0      0.00%      0.00% # Request fanout histogram
system.tol2bus.snoop_fanout::1                      0      0.00%      0.00% # Request fanout histogram
system.tol2bus.snoop_fanout::2                      0      0.00%      0.00% # Request fanout histogram
system.tol2bus.snoop_fanout::3                      0      0.00%      0.00% # Request fanout histogram
system.tol2bus.snoop_fanout::4                      0      0.00%      0.00% # Request fanout histogram
system.tol2bus.snoop_fanout::5                1385533    100.00%    100.00% # Request fanout histogram
system.tol2bus.snoop_fanout::6                      0      0.00%    100.00% # Request fanout histogram
system.tol2bus.snoop_fanout::overflows              0      0.00%    100.00% # Request fanout histogram
system.tol2bus.snoop_fanout::min_value              5                       # Request fanout histogram
system.tol2bus.snoop_fanout::max_value              5                       # Request fanout histogram
system.tol2bus.snoop_fanout::total            1385533                       # Request fanout histogram
system.tol2bus.reqLayer0.occupancy          871104919                       # Layer occupancy (ticks)
system.tol2bus.reqLayer0.utilization              2.2                       # Layer utilization (%)
system.tol2bus.respLayer0.occupancy            506498                       # Layer occupancy (ticks)
system.tol2bus.respLayer0.utilization             0.0                       # Layer utilization (%)
system.tol2bus.respLayer1.occupancy            437994                       # Layer occupancy (ticks)
system.tol2bus.respLayer1.utilization             0.0                       # Layer utilization (%)
system.tol2bus.respLayer4.occupancy           3442963                       # Layer occupancy (ticks)
system.tol2bus.respLayer4.utilization             0.0                       # Layer utilization (%)
system.tol2bus.respLayer5.occupancy         650155000                       # Layer occupancy (ticks)
system.tol2bus.respLayer5.utilization             1.6                       # Layer utilization (%)
system.tol2bus.respLayer8.occupancy           8444423                       # Layer occupancy (ticks)
system.tol2bus.respLayer8.utilization             0.0                       # Layer utilization (%)
system.tol2bus.respLayer9.occupancy         668629222                       # Layer occupancy (ticks)
system.tol2bus.respLayer9.utilization             1.7                       # Layer utilization (%)

---------- End Simulation Statistics   ----------
