
---------- Begin Simulation Statistics ----------
sim_seconds                                  0.040032                       # Number of seconds simulated
sim_ticks                                 40031711000                       # Number of ticks simulated
final_tick                                40031711000                       # Number of ticks from beginning of simulation (restored from checkpoints and never reset)
sim_freq                                 1000000000000                       # Frequency of simulated ticks
host_inst_rate                                 136551                       # Simulator instruction rate (inst/s)
host_op_rate                                   138442                       # Simulator op (including micro ops) rate (op/s)
host_tick_rate                               14211335                       # Simulator tick rate (ticks/s)
host_mem_usage                                 886124                       # Number of bytes of host memory used
host_seconds                                  2816.89                       # Real time elapsed on the host
sim_insts                                   384648375                       # Number of instructions simulated
sim_ops                                     389975421                       # Number of ops (including micro ops) simulated
system.voltage_domain.voltage                       1                       # Voltage in Volts
system.clk_domain.clock                          1000                       # Clock period in ticks
system.physmem.bytes_read::cpu00.inst           20928                       # Number of bytes read from this memory
system.physmem.bytes_read::cpu00.data           68416                       # Number of bytes read from this memory
system.physmem.bytes_read::cpu01.inst            5824                       # Number of bytes read from this memory
system.physmem.bytes_read::cpu01.data          195712                       # Number of bytes read from this memory
system.physmem.bytes_read::cpu02.inst            1408                       # Number of bytes read from this memory
system.physmem.bytes_read::cpu02.data          167360                       # Number of bytes read from this memory
system.physmem.bytes_read::cpu03.inst             576                       # Number of bytes read from this memory
system.physmem.bytes_read::cpu03.data          182464                       # Number of bytes read from this memory
system.physmem.bytes_read::cpu04.inst            3264                       # Number of bytes read from this memory
system.physmem.bytes_read::cpu04.data          152192                       # Number of bytes read from this memory
system.physmem.bytes_read::cpu05.inst            3392                       # Number of bytes read from this memory
system.physmem.bytes_read::cpu05.data          140096                       # Number of bytes read from this memory
system.physmem.bytes_read::cpu06.inst            1920                       # Number of bytes read from this memory
system.physmem.bytes_read::cpu06.data          135552                       # Number of bytes read from this memory
system.physmem.bytes_read::cpu07.inst            1728                       # Number of bytes read from this memory
system.physmem.bytes_read::cpu07.data          143232                       # Number of bytes read from this memory
system.physmem.bytes_read::cpu08.inst            1216                       # Number of bytes read from this memory
system.physmem.bytes_read::cpu08.data          135232                       # Number of bytes read from this memory
system.physmem.bytes_read::cpu09.inst             896                       # Number of bytes read from this memory
system.physmem.bytes_read::cpu09.data          153792                       # Number of bytes read from this memory
system.physmem.bytes_read::cpu10.inst            1024                       # Number of bytes read from this memory
system.physmem.bytes_read::cpu10.data          157312                       # Number of bytes read from this memory
system.physmem.bytes_read::cpu11.inst            1728                       # Number of bytes read from this memory
system.physmem.bytes_read::cpu11.data          154944                       # Number of bytes read from this memory
system.physmem.bytes_read::cpu12.inst            1088                       # Number of bytes read from this memory
system.physmem.bytes_read::cpu12.data          161344                       # Number of bytes read from this memory
system.physmem.bytes_read::cpu13.inst             704                       # Number of bytes read from this memory
system.physmem.bytes_read::cpu13.data          125504                       # Number of bytes read from this memory
system.physmem.bytes_read::cpu14.inst            1024                       # Number of bytes read from this memory
system.physmem.bytes_read::cpu14.data          129856                       # Number of bytes read from this memory
system.physmem.bytes_read::cpu15.inst            2176                       # Number of bytes read from this memory
system.physmem.bytes_read::cpu15.data          184384                       # Number of bytes read from this memory
system.physmem.bytes_read::cpu16.inst            6592                       # Number of bytes read from this memory
system.physmem.bytes_read::cpu16.data          141312                       # Number of bytes read from this memory
system.physmem.bytes_read::total              2584192                       # Number of bytes read from this memory
system.physmem.bytes_inst_read::cpu00.inst        20928                       # Number of instructions bytes read from this memory
system.physmem.bytes_inst_read::cpu01.inst         5824                       # Number of instructions bytes read from this memory
system.physmem.bytes_inst_read::cpu02.inst         1408                       # Number of instructions bytes read from this memory
system.physmem.bytes_inst_read::cpu03.inst          576                       # Number of instructions bytes read from this memory
system.physmem.bytes_inst_read::cpu04.inst         3264                       # Number of instructions bytes read from this memory
system.physmem.bytes_inst_read::cpu05.inst         3392                       # Number of instructions bytes read from this memory
system.physmem.bytes_inst_read::cpu06.inst         1920                       # Number of instructions bytes read from this memory
system.physmem.bytes_inst_read::cpu07.inst         1728                       # Number of instructions bytes read from this memory
system.physmem.bytes_inst_read::cpu08.inst         1216                       # Number of instructions bytes read from this memory
system.physmem.bytes_inst_read::cpu09.inst          896                       # Number of instructions bytes read from this memory
system.physmem.bytes_inst_read::cpu10.inst         1024                       # Number of instructions bytes read from this memory
system.physmem.bytes_inst_read::cpu11.inst         1728                       # Number of instructions bytes read from this memory
system.physmem.bytes_inst_read::cpu12.inst         1088                       # Number of instructions bytes read from this memory
system.physmem.bytes_inst_read::cpu13.inst          704                       # Number of instructions bytes read from this memory
system.physmem.bytes_inst_read::cpu14.inst         1024                       # Number of instructions bytes read from this memory
system.physmem.bytes_inst_read::cpu15.inst         2176                       # Number of instructions bytes read from this memory
system.physmem.bytes_inst_read::cpu16.inst         6592                       # Number of instructions bytes read from this memory
system.physmem.bytes_inst_read::total           55488                       # Number of instructions bytes read from this memory
system.physmem.bytes_written::writebacks       364160                       # Number of bytes written to this memory
system.physmem.bytes_written::total            364160                       # Number of bytes written to this memory
system.physmem.num_reads::cpu00.inst              327                       # Number of read requests responded to by this memory
system.physmem.num_reads::cpu00.data             1069                       # Number of read requests responded to by this memory
system.physmem.num_reads::cpu01.inst               91                       # Number of read requests responded to by this memory
system.physmem.num_reads::cpu01.data             3058                       # Number of read requests responded to by this memory
system.physmem.num_reads::cpu02.inst               22                       # Number of read requests responded to by this memory
system.physmem.num_reads::cpu02.data             2615                       # Number of read requests responded to by this memory
system.physmem.num_reads::cpu03.inst                9                       # Number of read requests responded to by this memory
system.physmem.num_reads::cpu03.data             2851                       # Number of read requests responded to by this memory
system.physmem.num_reads::cpu04.inst               51                       # Number of read requests responded to by this memory
system.physmem.num_reads::cpu04.data             2378                       # Number of read requests responded to by this memory
system.physmem.num_reads::cpu05.inst               53                       # Number of read requests responded to by this memory
system.physmem.num_reads::cpu05.data             2189                       # Number of read requests responded to by this memory
system.physmem.num_reads::cpu06.inst               30                       # Number of read requests responded to by this memory
system.physmem.num_reads::cpu06.data             2118                       # Number of read requests responded to by this memory
system.physmem.num_reads::cpu07.inst               27                       # Number of read requests responded to by this memory
system.physmem.num_reads::cpu07.data             2238                       # Number of read requests responded to by this memory
system.physmem.num_reads::cpu08.inst               19                       # Number of read requests responded to by this memory
system.physmem.num_reads::cpu08.data             2113                       # Number of read requests responded to by this memory
system.physmem.num_reads::cpu09.inst               14                       # Number of read requests responded to by this memory
system.physmem.num_reads::cpu09.data             2403                       # Number of read requests responded to by this memory
system.physmem.num_reads::cpu10.inst               16                       # Number of read requests responded to by this memory
system.physmem.num_reads::cpu10.data             2458                       # Number of read requests responded to by this memory
system.physmem.num_reads::cpu11.inst               27                       # Number of read requests responded to by this memory
system.physmem.num_reads::cpu11.data             2421                       # Number of read requests responded to by this memory
system.physmem.num_reads::cpu12.inst               17                       # Number of read requests responded to by this memory
system.physmem.num_reads::cpu12.data             2521                       # Number of read requests responded to by this memory
system.physmem.num_reads::cpu13.inst               11                       # Number of read requests responded to by this memory
system.physmem.num_reads::cpu13.data             1961                       # Number of read requests responded to by this memory
system.physmem.num_reads::cpu14.inst               16                       # Number of read requests responded to by this memory
system.physmem.num_reads::cpu14.data             2029                       # Number of read requests responded to by this memory
system.physmem.num_reads::cpu15.inst               34                       # Number of read requests responded to by this memory
system.physmem.num_reads::cpu15.data             2881                       # Number of read requests responded to by this memory
system.physmem.num_reads::cpu16.inst              103                       # Number of read requests responded to by this memory
system.physmem.num_reads::cpu16.data             2208                       # Number of read requests responded to by this memory
system.physmem.num_reads::total                 40378                       # Number of read requests responded to by this memory
system.physmem.num_writes::writebacks            5690                       # Number of write requests responded to by this memory
system.physmem.num_writes::total                 5690                       # Number of write requests responded to by this memory
system.physmem.bw_read::cpu00.inst             522786                       # Total read bandwidth from this memory (bytes/s)
system.physmem.bw_read::cpu00.data            1709045                       # Total read bandwidth from this memory (bytes/s)
system.physmem.bw_read::cpu01.inst             145485                       # Total read bandwidth from this memory (bytes/s)
system.physmem.bw_read::cpu01.data            4888924                       # Total read bandwidth from this memory (bytes/s)
system.physmem.bw_read::cpu02.inst              35172                       # Total read bandwidth from this memory (bytes/s)
system.physmem.bw_read::cpu02.data            4180686                       # Total read bandwidth from this memory (bytes/s)
system.physmem.bw_read::cpu03.inst              14389                       # Total read bandwidth from this memory (bytes/s)
system.physmem.bw_read::cpu03.data            4557987                       # Total read bandwidth from this memory (bytes/s)
system.physmem.bw_read::cpu04.inst              81535                       # Total read bandwidth from this memory (bytes/s)
system.physmem.bw_read::cpu04.data            3801786                       # Total read bandwidth from this memory (bytes/s)
system.physmem.bw_read::cpu05.inst              84733                       # Total read bandwidth from this memory (bytes/s)
system.physmem.bw_read::cpu05.data            3499626                       # Total read bandwidth from this memory (bytes/s)
system.physmem.bw_read::cpu06.inst              47962                       # Total read bandwidth from this memory (bytes/s)
system.physmem.bw_read::cpu06.data            3386116                       # Total read bandwidth from this memory (bytes/s)
system.physmem.bw_read::cpu07.inst              43166                       # Total read bandwidth from this memory (bytes/s)
system.physmem.bw_read::cpu07.data            3577963                       # Total read bandwidth from this memory (bytes/s)
system.physmem.bw_read::cpu08.inst              30376                       # Total read bandwidth from this memory (bytes/s)
system.physmem.bw_read::cpu08.data            3378122                       # Total read bandwidth from this memory (bytes/s)
system.physmem.bw_read::cpu09.inst              22382                       # Total read bandwidth from this memory (bytes/s)
system.physmem.bw_read::cpu09.data            3841754                       # Total read bandwidth from this memory (bytes/s)
system.physmem.bw_read::cpu10.inst              25580                       # Total read bandwidth from this memory (bytes/s)
system.physmem.bw_read::cpu10.data            3929685                       # Total read bandwidth from this memory (bytes/s)
system.physmem.bw_read::cpu11.inst              43166                       # Total read bandwidth from this memory (bytes/s)
system.physmem.bw_read::cpu11.data            3870532                       # Total read bandwidth from this memory (bytes/s)
system.physmem.bw_read::cpu12.inst              27178                       # Total read bandwidth from this memory (bytes/s)
system.physmem.bw_read::cpu12.data            4030405                       # Total read bandwidth from this memory (bytes/s)
system.physmem.bw_read::cpu13.inst              17586                       # Total read bandwidth from this memory (bytes/s)
system.physmem.bw_read::cpu13.data            3135115                       # Total read bandwidth from this memory (bytes/s)
system.physmem.bw_read::cpu14.inst              25580                       # Total read bandwidth from this memory (bytes/s)
system.physmem.bw_read::cpu14.data            3243828                       # Total read bandwidth from this memory (bytes/s)
system.physmem.bw_read::cpu15.inst              54357                       # Total read bandwidth from this memory (bytes/s)
system.physmem.bw_read::cpu15.data            4605949                       # Total read bandwidth from this memory (bytes/s)
system.physmem.bw_read::cpu16.inst             164669                       # Total read bandwidth from this memory (bytes/s)
system.physmem.bw_read::cpu16.data            3530002                       # Total read bandwidth from this memory (bytes/s)
system.physmem.bw_read::total                64553624                       # Total read bandwidth from this memory (bytes/s)
system.physmem.bw_inst_read::cpu00.inst        522786                       # Instruction read bandwidth from this memory (bytes/s)
system.physmem.bw_inst_read::cpu01.inst        145485                       # Instruction read bandwidth from this memory (bytes/s)
system.physmem.bw_inst_read::cpu02.inst         35172                       # Instruction read bandwidth from this memory (bytes/s)
system.physmem.bw_inst_read::cpu03.inst         14389                       # Instruction read bandwidth from this memory (bytes/s)
system.physmem.bw_inst_read::cpu04.inst         81535                       # Instruction read bandwidth from this memory (bytes/s)
system.physmem.bw_inst_read::cpu05.inst         84733                       # Instruction read bandwidth from this memory (bytes/s)
system.physmem.bw_inst_read::cpu06.inst         47962                       # Instruction read bandwidth from this memory (bytes/s)
system.physmem.bw_inst_read::cpu07.inst         43166                       # Instruction read bandwidth from this memory (bytes/s)
system.physmem.bw_inst_read::cpu08.inst         30376                       # Instruction read bandwidth from this memory (bytes/s)
system.physmem.bw_inst_read::cpu09.inst         22382                       # Instruction read bandwidth from this memory (bytes/s)
system.physmem.bw_inst_read::cpu10.inst         25580                       # Instruction read bandwidth from this memory (bytes/s)
system.physmem.bw_inst_read::cpu11.inst         43166                       # Instruction read bandwidth from this memory (bytes/s)
system.physmem.bw_inst_read::cpu12.inst         27178                       # Instruction read bandwidth from this memory (bytes/s)
system.physmem.bw_inst_read::cpu13.inst         17586                       # Instruction read bandwidth from this memory (bytes/s)
system.physmem.bw_inst_read::cpu14.inst         25580                       # Instruction read bandwidth from this memory (bytes/s)
system.physmem.bw_inst_read::cpu15.inst         54357                       # Instruction read bandwidth from this memory (bytes/s)
system.physmem.bw_inst_read::cpu16.inst        164669                       # Instruction read bandwidth from this memory (bytes/s)
system.physmem.bw_inst_read::total            1386101                       # Instruction read bandwidth from this memory (bytes/s)
system.physmem.bw_write::writebacks           9096788                       # Write bandwidth from this memory (bytes/s)
system.physmem.bw_write::total                9096788                       # Write bandwidth from this memory (bytes/s)
system.physmem.bw_total::writebacks           9096788                       # Total bandwidth to/from this memory (bytes/s)
system.physmem.bw_total::cpu00.inst            522786                       # Total bandwidth to/from this memory (bytes/s)
system.physmem.bw_total::cpu00.data           1709045                       # Total bandwidth to/from this memory (bytes/s)
system.physmem.bw_total::cpu01.inst            145485                       # Total bandwidth to/from this memory (bytes/s)
system.physmem.bw_total::cpu01.data           4888924                       # Total bandwidth to/from this memory (bytes/s)
system.physmem.bw_total::cpu02.inst             35172                       # Total bandwidth to/from this memory (bytes/s)
system.physmem.bw_total::cpu02.data           4180686                       # Total bandwidth to/from this memory (bytes/s)
system.physmem.bw_total::cpu03.inst             14389                       # Total bandwidth to/from this memory (bytes/s)
system.physmem.bw_total::cpu03.data           4557987                       # Total bandwidth to/from this memory (bytes/s)
system.physmem.bw_total::cpu04.inst             81535                       # Total bandwidth to/from this memory (bytes/s)
system.physmem.bw_total::cpu04.data           3801786                       # Total bandwidth to/from this memory (bytes/s)
system.physmem.bw_total::cpu05.inst             84733                       # Total bandwidth to/from this memory (bytes/s)
system.physmem.bw_total::cpu05.data           3499626                       # Total bandwidth to/from this memory (bytes/s)
system.physmem.bw_total::cpu06.inst             47962                       # Total bandwidth to/from this memory (bytes/s)
system.physmem.bw_total::cpu06.data           3386116                       # Total bandwidth to/from this memory (bytes/s)
system.physmem.bw_total::cpu07.inst             43166                       # Total bandwidth to/from this memory (bytes/s)
system.physmem.bw_total::cpu07.data           3577963                       # Total bandwidth to/from this memory (bytes/s)
system.physmem.bw_total::cpu08.inst             30376                       # Total bandwidth to/from this memory (bytes/s)
system.physmem.bw_total::cpu08.data           3378122                       # Total bandwidth to/from this memory (bytes/s)
system.physmem.bw_total::cpu09.inst             22382                       # Total bandwidth to/from this memory (bytes/s)
system.physmem.bw_total::cpu09.data           3841754                       # Total bandwidth to/from this memory (bytes/s)
system.physmem.bw_total::cpu10.inst             25580                       # Total bandwidth to/from this memory (bytes/s)
system.physmem.bw_total::cpu10.data           3929685                       # Total bandwidth to/from this memory (bytes/s)
system.physmem.bw_total::cpu11.inst             43166                       # Total bandwidth to/from this memory (bytes/s)
system.physmem.bw_total::cpu11.data           3870532                       # Total bandwidth to/from this memory (bytes/s)
system.physmem.bw_total::cpu12.inst             27178                       # Total bandwidth to/from this memory (bytes/s)
system.physmem.bw_total::cpu12.data           4030405                       # Total bandwidth to/from this memory (bytes/s)
system.physmem.bw_total::cpu13.inst             17586                       # Total bandwidth to/from this memory (bytes/s)
system.physmem.bw_total::cpu13.data           3135115                       # Total bandwidth to/from this memory (bytes/s)
system.physmem.bw_total::cpu14.inst             25580                       # Total bandwidth to/from this memory (bytes/s)
system.physmem.bw_total::cpu14.data           3243828                       # Total bandwidth to/from this memory (bytes/s)
system.physmem.bw_total::cpu15.inst             54357                       # Total bandwidth to/from this memory (bytes/s)
system.physmem.bw_total::cpu15.data           4605949                       # Total bandwidth to/from this memory (bytes/s)
system.physmem.bw_total::cpu16.inst            164669                       # Total bandwidth to/from this memory (bytes/s)
system.physmem.bw_total::cpu16.data           3530002                       # Total bandwidth to/from this memory (bytes/s)
system.physmem.bw_total::total               73650412                       # Total bandwidth to/from this memory (bytes/s)
system.cpu00.branchPred.lookups              20004187                       # Number of BP lookups
system.cpu00.branchPred.condPredicted        19998732                       # Number of conditional branches predicted
system.cpu00.branchPred.condIncorrect             765                       # Number of conditional branches incorrect
system.cpu00.branchPred.BTBLookups           19997482                       # Number of BTB lookups
system.cpu00.branchPred.BTBHits              19996986                       # Number of BTB hits
system.cpu00.branchPred.BTBCorrect                  0                       # Number of correct BTB predictions (this stat may not work properly.
system.cpu00.branchPred.BTBHitPct           99.997520                       # BTB Hit Percentage
system.cpu00.branchPred.usedRAS                  2545                       # Number of times the RAS was used to get a target.
system.cpu00.branchPred.RASInCorrect               59                       # Number of incorrect RAS predictions.
system.cpu00.dstage2_mmu.stage2_tlb.walker.walks            0                       # Table walker walks requested
system.cpu00.dstage2_mmu.stage2_tlb.walker.walkRequestOrigin_Requested::Data            0                       # Table walker requests started/completed, data/inst
system.cpu00.dstage2_mmu.stage2_tlb.walker.walkRequestOrigin_Requested::Inst            0                       # Table walker requests started/completed, data/inst
system.cpu00.dstage2_mmu.stage2_tlb.walker.walkRequestOrigin_Requested::total            0                       # Table walker requests started/completed, data/inst
system.cpu00.dstage2_mmu.stage2_tlb.walker.walkRequestOrigin_Completed::Data            0                       # Table walker requests started/completed, data/inst
system.cpu00.dstage2_mmu.stage2_tlb.walker.walkRequestOrigin_Completed::Inst            0                       # Table walker requests started/completed, data/inst
system.cpu00.dstage2_mmu.stage2_tlb.walker.walkRequestOrigin_Completed::total            0                       # Table walker requests started/completed, data/inst
system.cpu00.dstage2_mmu.stage2_tlb.walker.walkRequestOrigin::total            0                       # Table walker requests started/completed, data/inst
system.cpu00.dstage2_mmu.stage2_tlb.inst_hits            0                       # ITB inst hits
system.cpu00.dstage2_mmu.stage2_tlb.inst_misses            0                       # ITB inst misses
system.cpu00.dstage2_mmu.stage2_tlb.read_hits            0                       # DTB read hits
system.cpu00.dstage2_mmu.stage2_tlb.read_misses            0                       # DTB read misses
system.cpu00.dstage2_mmu.stage2_tlb.write_hits            0                       # DTB write hits
system.cpu00.dstage2_mmu.stage2_tlb.write_misses            0                       # DTB write misses
system.cpu00.dstage2_mmu.stage2_tlb.flush_tlb            0                       # Number of times complete TLB was flushed
system.cpu00.dstage2_mmu.stage2_tlb.flush_tlb_mva            0                       # Number of times TLB was flushed by MVA
system.cpu00.dstage2_mmu.stage2_tlb.flush_tlb_mva_asid            0                       # Number of times TLB was flushed by MVA & ASID
system.cpu00.dstage2_mmu.stage2_tlb.flush_tlb_asid            0                       # Number of times TLB was flushed by ASID
system.cpu00.dstage2_mmu.stage2_tlb.flush_entries            0                       # Number of entries that have been flushed from TLB
system.cpu00.dstage2_mmu.stage2_tlb.align_faults            0                       # Number of TLB faults due to alignment restrictions
system.cpu00.dstage2_mmu.stage2_tlb.prefetch_faults            0                       # Number of TLB faults due to prefetch
system.cpu00.dstage2_mmu.stage2_tlb.domain_faults            0                       # Number of TLB faults due to domain restrictions
system.cpu00.dstage2_mmu.stage2_tlb.perms_faults            0                       # Number of TLB faults due to permissions restrictions
system.cpu00.dstage2_mmu.stage2_tlb.read_accesses            0                       # DTB read accesses
system.cpu00.dstage2_mmu.stage2_tlb.write_accesses            0                       # DTB write accesses
system.cpu00.dstage2_mmu.stage2_tlb.inst_accesses            0                       # ITB inst accesses
system.cpu00.dstage2_mmu.stage2_tlb.hits            0                       # DTB hits
system.cpu00.dstage2_mmu.stage2_tlb.misses            0                       # DTB misses
system.cpu00.dstage2_mmu.stage2_tlb.accesses            0                       # DTB accesses
system.cpu00.dtb.walker.walks                       0                       # Table walker walks requested
system.cpu00.dtb.walker.walkRequestOrigin_Requested::Data            0                       # Table walker requests started/completed, data/inst
system.cpu00.dtb.walker.walkRequestOrigin_Requested::Inst            0                       # Table walker requests started/completed, data/inst
system.cpu00.dtb.walker.walkRequestOrigin_Requested::total            0                       # Table walker requests started/completed, data/inst
system.cpu00.dtb.walker.walkRequestOrigin_Completed::Data            0                       # Table walker requests started/completed, data/inst
system.cpu00.dtb.walker.walkRequestOrigin_Completed::Inst            0                       # Table walker requests started/completed, data/inst
system.cpu00.dtb.walker.walkRequestOrigin_Completed::total            0                       # Table walker requests started/completed, data/inst
system.cpu00.dtb.walker.walkRequestOrigin::total            0                       # Table walker requests started/completed, data/inst
system.cpu00.dtb.inst_hits                          0                       # ITB inst hits
system.cpu00.dtb.inst_misses                        0                       # ITB inst misses
system.cpu00.dtb.read_hits                          0                       # DTB read hits
system.cpu00.dtb.read_misses                        0                       # DTB read misses
system.cpu00.dtb.write_hits                         0                       # DTB write hits
system.cpu00.dtb.write_misses                       0                       # DTB write misses
system.cpu00.dtb.flush_tlb                          0                       # Number of times complete TLB was flushed
system.cpu00.dtb.flush_tlb_mva                      0                       # Number of times TLB was flushed by MVA
system.cpu00.dtb.flush_tlb_mva_asid                 0                       # Number of times TLB was flushed by MVA & ASID
system.cpu00.dtb.flush_tlb_asid                     0                       # Number of times TLB was flushed by ASID
system.cpu00.dtb.flush_entries                      0                       # Number of entries that have been flushed from TLB
system.cpu00.dtb.align_faults                       0                       # Number of TLB faults due to alignment restrictions
system.cpu00.dtb.prefetch_faults                    0                       # Number of TLB faults due to prefetch
system.cpu00.dtb.domain_faults                      0                       # Number of TLB faults due to domain restrictions
system.cpu00.dtb.perms_faults                       0                       # Number of TLB faults due to permissions restrictions
system.cpu00.dtb.read_accesses                      0                       # DTB read accesses
system.cpu00.dtb.write_accesses                     0                       # DTB write accesses
system.cpu00.dtb.inst_accesses                      0                       # ITB inst accesses
system.cpu00.dtb.hits                               0                       # DTB hits
system.cpu00.dtb.misses                             0                       # DTB misses
system.cpu00.dtb.accesses                           0                       # DTB accesses
system.cpu00.istage2_mmu.stage2_tlb.walker.walks            0                       # Table walker walks requested
system.cpu00.istage2_mmu.stage2_tlb.walker.walkRequestOrigin_Requested::Data            0                       # Table walker requests started/completed, data/inst
system.cpu00.istage2_mmu.stage2_tlb.walker.walkRequestOrigin_Requested::Inst            0                       # Table walker requests started/completed, data/inst
system.cpu00.istage2_mmu.stage2_tlb.walker.walkRequestOrigin_Requested::total            0                       # Table walker requests started/completed, data/inst
system.cpu00.istage2_mmu.stage2_tlb.walker.walkRequestOrigin_Completed::Data            0                       # Table walker requests started/completed, data/inst
system.cpu00.istage2_mmu.stage2_tlb.walker.walkRequestOrigin_Completed::Inst            0                       # Table walker requests started/completed, data/inst
system.cpu00.istage2_mmu.stage2_tlb.walker.walkRequestOrigin_Completed::total            0                       # Table walker requests started/completed, data/inst
system.cpu00.istage2_mmu.stage2_tlb.walker.walkRequestOrigin::total            0                       # Table walker requests started/completed, data/inst
system.cpu00.istage2_mmu.stage2_tlb.inst_hits            0                       # ITB inst hits
system.cpu00.istage2_mmu.stage2_tlb.inst_misses            0                       # ITB inst misses
system.cpu00.istage2_mmu.stage2_tlb.read_hits            0                       # DTB read hits
system.cpu00.istage2_mmu.stage2_tlb.read_misses            0                       # DTB read misses
system.cpu00.istage2_mmu.stage2_tlb.write_hits            0                       # DTB write hits
system.cpu00.istage2_mmu.stage2_tlb.write_misses            0                       # DTB write misses
system.cpu00.istage2_mmu.stage2_tlb.flush_tlb            0                       # Number of times complete TLB was flushed
system.cpu00.istage2_mmu.stage2_tlb.flush_tlb_mva            0                       # Number of times TLB was flushed by MVA
system.cpu00.istage2_mmu.stage2_tlb.flush_tlb_mva_asid            0                       # Number of times TLB was flushed by MVA & ASID
system.cpu00.istage2_mmu.stage2_tlb.flush_tlb_asid            0                       # Number of times TLB was flushed by ASID
system.cpu00.istage2_mmu.stage2_tlb.flush_entries            0                       # Number of entries that have been flushed from TLB
system.cpu00.istage2_mmu.stage2_tlb.align_faults            0                       # Number of TLB faults due to alignment restrictions
system.cpu00.istage2_mmu.stage2_tlb.prefetch_faults            0                       # Number of TLB faults due to prefetch
system.cpu00.istage2_mmu.stage2_tlb.domain_faults            0                       # Number of TLB faults due to domain restrictions
system.cpu00.istage2_mmu.stage2_tlb.perms_faults            0                       # Number of TLB faults due to permissions restrictions
system.cpu00.istage2_mmu.stage2_tlb.read_accesses            0                       # DTB read accesses
system.cpu00.istage2_mmu.stage2_tlb.write_accesses            0                       # DTB write accesses
system.cpu00.istage2_mmu.stage2_tlb.inst_accesses            0                       # ITB inst accesses
system.cpu00.istage2_mmu.stage2_tlb.hits            0                       # DTB hits
system.cpu00.istage2_mmu.stage2_tlb.misses            0                       # DTB misses
system.cpu00.istage2_mmu.stage2_tlb.accesses            0                       # DTB accesses
system.cpu00.itb.walker.walks                       0                       # Table walker walks requested
system.cpu00.itb.walker.walkRequestOrigin_Requested::Data            0                       # Table walker requests started/completed, data/inst
system.cpu00.itb.walker.walkRequestOrigin_Requested::Inst            0                       # Table walker requests started/completed, data/inst
system.cpu00.itb.walker.walkRequestOrigin_Requested::total            0                       # Table walker requests started/completed, data/inst
system.cpu00.itb.walker.walkRequestOrigin_Completed::Data            0                       # Table walker requests started/completed, data/inst
system.cpu00.itb.walker.walkRequestOrigin_Completed::Inst            0                       # Table walker requests started/completed, data/inst
system.cpu00.itb.walker.walkRequestOrigin_Completed::total            0                       # Table walker requests started/completed, data/inst
system.cpu00.itb.walker.walkRequestOrigin::total            0                       # Table walker requests started/completed, data/inst
system.cpu00.itb.inst_hits                          0                       # ITB inst hits
system.cpu00.itb.inst_misses                        0                       # ITB inst misses
system.cpu00.itb.read_hits                          0                       # DTB read hits
system.cpu00.itb.read_misses                        0                       # DTB read misses
system.cpu00.itb.write_hits                         0                       # DTB write hits
system.cpu00.itb.write_misses                       0                       # DTB write misses
system.cpu00.itb.flush_tlb                          0                       # Number of times complete TLB was flushed
system.cpu00.itb.flush_tlb_mva                      0                       # Number of times TLB was flushed by MVA
system.cpu00.itb.flush_tlb_mva_asid                 0                       # Number of times TLB was flushed by MVA & ASID
system.cpu00.itb.flush_tlb_asid                     0                       # Number of times TLB was flushed by ASID
system.cpu00.itb.flush_entries                      0                       # Number of entries that have been flushed from TLB
system.cpu00.itb.align_faults                       0                       # Number of TLB faults due to alignment restrictions
system.cpu00.itb.prefetch_faults                    0                       # Number of TLB faults due to prefetch
system.cpu00.itb.domain_faults                      0                       # Number of TLB faults due to domain restrictions
system.cpu00.itb.perms_faults                       0                       # Number of TLB faults due to permissions restrictions
system.cpu00.itb.read_accesses                      0                       # DTB read accesses
system.cpu00.itb.write_accesses                     0                       # DTB write accesses
system.cpu00.itb.inst_accesses                      0                       # ITB inst accesses
system.cpu00.itb.hits                               0                       # DTB hits
system.cpu00.itb.misses                             0                       # DTB misses
system.cpu00.itb.accesses                           0                       # DTB accesses
system.cpu00.workload.num_syscalls             525945                       # Number of system calls
system.cpu00.numCycles                       40031712                       # number of cpu cycles simulated
system.cpu00.numWorkItemsStarted                    0                       # number of work items this cpu started
system.cpu00.numWorkItemsCompleted                  0                       # number of work items this cpu completed
system.cpu00.fetch.icacheStallCycles            13524                       # Number of cycles fetch is stalled on an Icache miss
system.cpu00.fetch.Insts                    100012151                       # Number of instructions fetch has processed
system.cpu00.fetch.Branches                  20004187                       # Number of branches that fetch encountered
system.cpu00.fetch.predictedBranches         19999531                       # Number of branches that fetch has predicted taken
system.cpu00.fetch.Cycles                    40009965                       # Number of cycles fetch has run and was not squashing or blocked
system.cpu00.fetch.SquashCycles                  1786                       # Number of cycles fetch has spent squashing
system.cpu00.fetch.PendingTrapStallCycles          165                       # Number of stall cycles due to pending traps
system.cpu00.fetch.CacheLines                    7327                       # Number of cache lines fetched
system.cpu00.fetch.IcacheSquashes                 277                       # Number of outstanding Icache misses that were squashed
system.cpu00.fetch.rateDist::samples         40024547                       # Number of instructions fetched each cycle (Total)
system.cpu00.fetch.rateDist::mean            2.498911                       # Number of instructions fetched each cycle (Total)
system.cpu00.fetch.rateDist::stdev           0.502877                       # Number of instructions fetched each cycle (Total)
system.cpu00.fetch.rateDist::underflows             0      0.00%      0.00% # Number of instructions fetched each cycle (Total)
system.cpu00.fetch.rateDist::0                  18278      0.05%      0.05% # Number of instructions fetched each cycle (Total)
system.cpu00.fetch.rateDist::1                   2930      0.01%      0.05% # Number of instructions fetched each cycle (Total)
system.cpu00.fetch.rateDist::2               19995157     49.96%     50.01% # Number of instructions fetched each cycle (Total)
system.cpu00.fetch.rateDist::3               20008182     49.99%    100.00% # Number of instructions fetched each cycle (Total)
system.cpu00.fetch.rateDist::overflows              0      0.00%    100.00% # Number of instructions fetched each cycle (Total)
system.cpu00.fetch.rateDist::min_value              0                       # Number of instructions fetched each cycle (Total)
system.cpu00.fetch.rateDist::max_value              3                       # Number of instructions fetched each cycle (Total)
system.cpu00.fetch.rateDist::total           40024547                       # Number of instructions fetched each cycle (Total)
system.cpu00.fetch.branchRate                0.499709                       # Number of branch fetches per cycle
system.cpu00.fetch.rate                      2.498323                       # Number of inst fetches per cycle
system.cpu00.decode.IdleCycles                  12479                       # Number of cycles decode is idle
system.cpu00.decode.BlockedCycles                6769                       # Number of cycles decode is blocked
system.cpu00.decode.RunCycles                40003891                       # Number of cycles decode is running
system.cpu00.decode.UnblockCycles                 700                       # Number of cycles decode is unblocking
system.cpu00.decode.SquashCycles                  708                       # Number of cycles decode is squashing
system.cpu00.decode.BranchResolved               2526                       # Number of times decode resolved a branch
system.cpu00.decode.BranchMispred                 205                       # Number of times decode detected a branch misprediction
system.cpu00.decode.DecodedInsts            100013674                       # Number of instructions handled by decode
system.cpu00.decode.SquashedInsts                 417                       # Number of squashed instructions handled by decode
system.cpu00.rename.SquashCycles                  708                       # Number of cycles rename is squashing
system.cpu00.rename.IdleCycles                  13238                       # Number of cycles rename is idle
system.cpu00.rename.BlockCycles                   585                       # Number of cycles rename is blocking
system.cpu00.rename.serializeStallCycles         3812                       # count of cycles rename stalled for serializing inst
system.cpu00.rename.RunCycles                40003751                       # Number of cycles rename is running
system.cpu00.rename.UnblockCycles                2453                       # Number of cycles rename is unblocking
system.cpu00.rename.RenamedInsts            100012288                       # Number of instructions processed by rename
system.cpu00.rename.SQFullEvents                 2349                       # Number of times rename has blocked due to SQ full
system.cpu00.rename.RenamedOperands         100014109                       # Number of destination operands rename has renamed
system.cpu00.rename.RenameLookups           460042796                       # Number of register rename lookups that rename has made
system.cpu00.rename.int_rename_lookups      100014284                       # Number of integer rename lookups
system.cpu00.rename.fp_rename_lookups              16                       # Number of floating rename lookups
system.cpu00.rename.CommittedMaps           100004397                       # Number of HB maps that are committed
system.cpu00.rename.UndoneMaps                   9685                       # Number of HB maps that are undone due to squashing
system.cpu00.rename.serializingInsts               79                       # count of serializing insts renamed
system.cpu00.rename.tempSerializingInsts           80                       # count of temporary serializing insts renamed
system.cpu00.rename.skidInsts                    1140                       # count of insts added to the skid buffer
system.cpu00.memDep0.insertedLoads           39989004                       # Number of loads inserted to the mem dependence unit.
system.cpu00.memDep0.insertedStores          19998309                       # Number of stores inserted to the mem dependence unit.
system.cpu00.memDep0.conflictingLoads        19991727                       # Number of conflicting loads.
system.cpu00.memDep0.conflictingStores       19991667                       # Number of conflicting stores.
system.cpu00.iq.iqInstsAdded                100009845                       # Number of instructions added to the IQ (excludes non-spec)
system.cpu00.iq.iqNonSpecInstsAdded               103                       # Number of non-speculative instructions added to the IQ
system.cpu00.iq.iqInstsIssued               100007612                       # Number of instructions issued
system.cpu00.iq.iqSquashedInstsIssued             369                       # Number of squashed instructions issued
system.cpu00.iq.iqSquashedInstsExamined          6304                       # Number of squashed instructions iterated over during squash; mainly for profiling
system.cpu00.iq.iqSquashedOperandsExamined        15401                       # Number of squashed operands that are examined and possibly removed from graph
system.cpu00.iq.iqSquashedNonSpecRemoved            7                       # Number of squashed non-spec instructions that were removed
system.cpu00.iq.issued_per_cycle::samples     40024547                       # Number of insts issued each cycle
system.cpu00.iq.issued_per_cycle::mean       2.498657                       # Number of insts issued each cycle
system.cpu00.iq.issued_per_cycle::stdev      0.706868                       # Number of insts issued each cycle
system.cpu00.iq.issued_per_cycle::underflows            0      0.00%      0.00% # Number of insts issued each cycle
system.cpu00.iq.issued_per_cycle::0             17906      0.04%      0.04% # Number of insts issued each cycle
system.cpu00.iq.issued_per_cycle::1           4942631     12.35%     12.39% # Number of insts issued each cycle
system.cpu00.iq.issued_per_cycle::2          10127049     25.30%     37.70% # Number of insts issued each cycle
system.cpu00.iq.issued_per_cycle::3          24936961     62.30%    100.00% # Number of insts issued each cycle
system.cpu00.iq.issued_per_cycle::overflows            0      0.00%    100.00% # Number of insts issued each cycle
system.cpu00.iq.issued_per_cycle::min_value            0                       # Number of insts issued each cycle
system.cpu00.iq.issued_per_cycle::max_value            3                       # Number of insts issued each cycle
system.cpu00.iq.issued_per_cycle::total      40024547                       # Number of insts issued each cycle
system.cpu00.iq.fu_full::No_OpClass                 0                       # attempts to use FU when none available
system.cpu00.iq.fu_full::IntAlu                     0                       # attempts to use FU when none available
system.cpu00.iq.fu_full::IntMult                    0                       # attempts to use FU when none available
system.cpu00.iq.fu_full::IntDiv                     0                       # attempts to use FU when none available
system.cpu00.iq.fu_full::FloatAdd                   0                       # attempts to use FU when none available
system.cpu00.iq.fu_full::FloatCmp                   0                       # attempts to use FU when none available
system.cpu00.iq.fu_full::FloatCvt                   0                       # attempts to use FU when none available
system.cpu00.iq.fu_full::FloatMult                  0                       # attempts to use FU when none available
system.cpu00.iq.fu_full::FloatDiv                   0                       # attempts to use FU when none available
system.cpu00.iq.fu_full::FloatSqrt                  0                       # attempts to use FU when none available
system.cpu00.iq.fu_full::SimdAdd                    0                       # attempts to use FU when none available
system.cpu00.iq.fu_full::SimdAddAcc                 0                       # attempts to use FU when none available
system.cpu00.iq.fu_full::SimdAlu                    0                       # attempts to use FU when none available
system.cpu00.iq.fu_full::SimdCmp                    0                       # attempts to use FU when none available
system.cpu00.iq.fu_full::SimdCvt                    0                       # attempts to use FU when none available
system.cpu00.iq.fu_full::SimdMisc                   0                       # attempts to use FU when none available
system.cpu00.iq.fu_full::SimdMult                   0                       # attempts to use FU when none available
system.cpu00.iq.fu_full::SimdMultAcc                0                       # attempts to use FU when none available
system.cpu00.iq.fu_full::SimdShift                  0                       # attempts to use FU when none available
system.cpu00.iq.fu_full::SimdShiftAcc               0                       # attempts to use FU when none available
system.cpu00.iq.fu_full::SimdSqrt                   0                       # attempts to use FU when none available
system.cpu00.iq.fu_full::SimdFloatAdd               0                       # attempts to use FU when none available
system.cpu00.iq.fu_full::SimdFloatAlu               0                       # attempts to use FU when none available
system.cpu00.iq.fu_full::SimdFloatCmp               0                       # attempts to use FU when none available
system.cpu00.iq.fu_full::SimdFloatCvt               0                       # attempts to use FU when none available
system.cpu00.iq.fu_full::SimdFloatDiv               0                       # attempts to use FU when none available
system.cpu00.iq.fu_full::SimdFloatMisc              0                       # attempts to use FU when none available
system.cpu00.iq.fu_full::SimdFloatMult              0                       # attempts to use FU when none available
system.cpu00.iq.fu_full::SimdFloatMultAcc            0                       # attempts to use FU when none available
system.cpu00.iq.fu_full::SimdFloatSqrt              0                       # attempts to use FU when none available
system.cpu00.iq.fu_full::MemRead                    0                       # attempts to use FU when none available
system.cpu00.iq.fu_full::MemWrite                   0                       # attempts to use FU when none available
system.cpu00.iq.fu_full::IprAccess                  0                       # attempts to use FU when none available
system.cpu00.iq.fu_full::InstPrefetch               0                       # attempts to use FU when none available
system.cpu00.iq.FU_type_0::No_OpClass               0      0.00%      0.00% # Type of FU issued
system.cpu00.iq.FU_type_0::IntAlu            40020948     40.02%     40.02% # Type of FU issued
system.cpu00.iq.FU_type_0::IntMult                  8      0.00%     40.02% # Type of FU issued
system.cpu00.iq.FU_type_0::IntDiv                   0      0.00%     40.02% # Type of FU issued
system.cpu00.iq.FU_type_0::FloatAdd                 0      0.00%     40.02% # Type of FU issued
system.cpu00.iq.FU_type_0::FloatCmp                 0      0.00%     40.02% # Type of FU issued
system.cpu00.iq.FU_type_0::FloatCvt                 0      0.00%     40.02% # Type of FU issued
system.cpu00.iq.FU_type_0::FloatMult                0      0.00%     40.02% # Type of FU issued
system.cpu00.iq.FU_type_0::FloatDiv                 0      0.00%     40.02% # Type of FU issued
system.cpu00.iq.FU_type_0::FloatSqrt                0      0.00%     40.02% # Type of FU issued
system.cpu00.iq.FU_type_0::SimdAdd                  0      0.00%     40.02% # Type of FU issued
system.cpu00.iq.FU_type_0::SimdAddAcc               0      0.00%     40.02% # Type of FU issued
system.cpu00.iq.FU_type_0::SimdAlu                  0      0.00%     40.02% # Type of FU issued
system.cpu00.iq.FU_type_0::SimdCmp                  0      0.00%     40.02% # Type of FU issued
system.cpu00.iq.FU_type_0::SimdCvt                  0      0.00%     40.02% # Type of FU issued
system.cpu00.iq.FU_type_0::SimdMisc                 0      0.00%     40.02% # Type of FU issued
system.cpu00.iq.FU_type_0::SimdMult                 0      0.00%     40.02% # Type of FU issued
system.cpu00.iq.FU_type_0::SimdMultAcc              0      0.00%     40.02% # Type of FU issued
system.cpu00.iq.FU_type_0::SimdShift                0      0.00%     40.02% # Type of FU issued
system.cpu00.iq.FU_type_0::SimdShiftAcc             0      0.00%     40.02% # Type of FU issued
system.cpu00.iq.FU_type_0::SimdSqrt                 0      0.00%     40.02% # Type of FU issued
system.cpu00.iq.FU_type_0::SimdFloatAdd             0      0.00%     40.02% # Type of FU issued
system.cpu00.iq.FU_type_0::SimdFloatAlu             0      0.00%     40.02% # Type of FU issued
system.cpu00.iq.FU_type_0::SimdFloatCmp             0      0.00%     40.02% # Type of FU issued
system.cpu00.iq.FU_type_0::SimdFloatCvt             0      0.00%     40.02% # Type of FU issued
system.cpu00.iq.FU_type_0::SimdFloatDiv             0      0.00%     40.02% # Type of FU issued
system.cpu00.iq.FU_type_0::SimdFloatMisc            3      0.00%     40.02% # Type of FU issued
system.cpu00.iq.FU_type_0::SimdFloatMult            0      0.00%     40.02% # Type of FU issued
system.cpu00.iq.FU_type_0::SimdFloatMultAcc            0      0.00%     40.02% # Type of FU issued
system.cpu00.iq.FU_type_0::SimdFloatSqrt            0      0.00%     40.02% # Type of FU issued
system.cpu00.iq.FU_type_0::MemRead           39988636     39.99%     80.00% # Type of FU issued
system.cpu00.iq.FU_type_0::MemWrite          19998017     20.00%    100.00% # Type of FU issued
system.cpu00.iq.FU_type_0::IprAccess                0      0.00%    100.00% # Type of FU issued
system.cpu00.iq.FU_type_0::InstPrefetch             0      0.00%    100.00% # Type of FU issued
system.cpu00.iq.FU_type_0::total            100007612                       # Type of FU issued
system.cpu00.iq.rate                         2.498210                       # Inst issue rate
system.cpu00.iq.fu_busy_cnt                         0                       # FU busy when requested
system.cpu00.iq.fu_busy_rate                        0                       # FU busy rate (busy events/executed inst)
system.cpu00.iq.int_inst_queue_reads        240040106                       # Number of integer instruction queue reads
system.cpu00.iq.int_inst_queue_writes       100016325                       # Number of integer instruction queue writes
system.cpu00.iq.int_inst_queue_wakeup_accesses    100006255                       # Number of integer instruction queue wakeup accesses
system.cpu00.iq.fp_inst_queue_reads                32                       # Number of floating instruction queue reads
system.cpu00.iq.fp_inst_queue_writes               16                       # Number of floating instruction queue writes
system.cpu00.iq.fp_inst_queue_wakeup_accesses           16                       # Number of floating instruction queue wakeup accesses
system.cpu00.iq.int_alu_accesses            100007596                       # Number of integer alu accesses
system.cpu00.iq.fp_alu_accesses                    16                       # Number of floating point alu accesses
system.cpu00.iew.lsq.thread0.forwLoads       19991876                       # Number of loads that had data forwarded from stores
system.cpu00.iew.lsq.thread0.invAddrLoads            0                       # Number of loads ignored due to an invalid address
system.cpu00.iew.lsq.thread0.squashedLoads         1696                       # Number of loads squashed
system.cpu00.iew.lsq.thread0.ignoredResponses            2                       # Number of memory responses ignored because the instruction is squashed
system.cpu00.iew.lsq.thread0.memOrderViolation           89                       # Number of memory ordering violations
system.cpu00.iew.lsq.thread0.squashedStores          661                       # Number of stores squashed
system.cpu00.iew.lsq.thread0.invAddrSwpfs            0                       # Number of software prefetches ignored due to an invalid address
system.cpu00.iew.lsq.thread0.blockedLoads            0                       # Number of blocked loads due to partial load-store forwarding
system.cpu00.iew.lsq.thread0.rescheduledLoads            1                       # Number of loads that were rescheduled
system.cpu00.iew.lsq.thread0.cacheBlocked            9                       # Number of times an access to memory failed due to the cache being blocked
system.cpu00.iew.iewIdleCycles                      0                       # Number of cycles IEW is idle
system.cpu00.iew.iewSquashCycles                  708                       # Number of cycles IEW is squashing
system.cpu00.iew.iewBlockCycles                   475                       # Number of cycles IEW is blocking
system.cpu00.iew.iewUnblockCycles                 115                       # Number of cycles IEW is unblocking
system.cpu00.iew.iewDispatchedInsts         100009968                       # Number of instructions dispatched to IQ
system.cpu00.iew.iewDispSquashedInsts             454                       # Number of squashed instructions skipped by dispatch
system.cpu00.iew.iewDispLoadInsts            39989004                       # Number of dispatched load instructions
system.cpu00.iew.iewDispStoreInsts           19998309                       # Number of dispatched store instructions
system.cpu00.iew.iewDispNonSpecInsts               75                       # Number of dispatched non-speculative instructions
system.cpu00.iew.iewIQFullEvents                    2                       # Number of times the IQ has become full, causing a stall
system.cpu00.iew.iewLSQFullEvents                   0                       # Number of times the LSQ has become full, causing a stall
system.cpu00.iew.memOrderViolationEvents           89                       # Number of memory order violations
system.cpu00.iew.predictedTakenIncorrect           81                       # Number of branches that were predicted taken incorrectly
system.cpu00.iew.predictedNotTakenIncorrect          535                       # Number of branches that were predicted not taken incorrectly
system.cpu00.iew.branchMispredicts                616                       # Number of branch mispredicts detected at execute
system.cpu00.iew.iewExecutedInsts           100006829                       # Number of executed instructions
system.cpu00.iew.iewExecLoadInsts            39988409                       # Number of load instructions executed
system.cpu00.iew.iewExecSquashedInsts             781                       # Number of squashed instructions skipped in execute
system.cpu00.iew.exec_swp                           0                       # number of swp insts executed
system.cpu00.iew.exec_nop                          20                       # number of nop insts executed
system.cpu00.iew.exec_refs                   59986240                       # number of memory reference insts executed
system.cpu00.iew.exec_branches               20002206                       # Number of branches executed
system.cpu00.iew.exec_stores                 19997831                       # Number of stores executed
system.cpu00.iew.exec_rate                   2.498190                       # Inst execution rate
system.cpu00.iew.wb_sent                    100006390                       # cumulative count of insts sent to commit
system.cpu00.iew.wb_count                   100006271                       # cumulative count of insts written-back
system.cpu00.iew.wb_producers                59998934                       # num instructions producing a value
system.cpu00.iew.wb_consumers                60010563                       # num instructions consuming a value
system.cpu00.iew.wb_penalized                       0                       # number of instrctions required to write to 'other' IQ
system.cpu00.iew.wb_rate                     2.498176                       # insts written-back per cycle
system.cpu00.iew.wb_fanout                   0.999806                       # average fanout of values written-back
system.cpu00.iew.wb_penalized_rate                  0                       # fraction of instructions written-back that wrote to 'other' IQ
system.cpu00.commit.commitSquashedInsts          6324                       # The number of squashed insts skipped by commit
system.cpu00.commit.commitNonSpecStalls            96                       # The number of times commit has been forced to stall to communicate backwards
system.cpu00.commit.branchMispredicts             580                       # The number of times a branch was mispredicted
system.cpu00.commit.committed_per_cycle::samples     40023389                       # Number of insts commited each cycle
system.cpu00.commit.committed_per_cycle::mean     2.498630                       # Number of insts commited each cycle
system.cpu00.commit.committed_per_cycle::stdev     1.580573                       # Number of insts commited each cycle
system.cpu00.commit.committed_per_cycle::underflows            0      0.00%      0.00% # Number of insts commited each cycle
system.cpu00.commit.committed_per_cycle::0        19163      0.05%      0.05% # Number of insts commited each cycle
system.cpu00.commit.committed_per_cycle::1     20000401     49.97%     50.02% # Number of insts commited each cycle
system.cpu00.commit.committed_per_cycle::2         3538      0.01%     50.03% # Number of insts commited each cycle
system.cpu00.commit.committed_per_cycle::3      4941400     12.35%     62.37% # Number of insts commited each cycle
system.cpu00.commit.committed_per_cycle::4     10123070     25.29%     87.67% # Number of insts commited each cycle
system.cpu00.commit.committed_per_cycle::5      4935535     12.33%    100.00% # Number of insts commited each cycle
system.cpu00.commit.committed_per_cycle::6           82      0.00%    100.00% # Number of insts commited each cycle
system.cpu00.commit.committed_per_cycle::7          100      0.00%    100.00% # Number of insts commited each cycle
system.cpu00.commit.committed_per_cycle::8          100      0.00%    100.00% # Number of insts commited each cycle
system.cpu00.commit.committed_per_cycle::overflows            0      0.00%    100.00% # Number of insts commited each cycle
system.cpu00.commit.committed_per_cycle::min_value            0                       # Number of insts commited each cycle
system.cpu00.commit.committed_per_cycle::max_value            8                       # Number of insts commited each cycle
system.cpu00.commit.committed_per_cycle::total     40023389                       # Number of insts commited each cycle
system.cpu00.commit.committedInsts          100000002                       # Number of instructions committed
system.cpu00.commit.committedOps            100003624                       # Number of ops (including micro ops) committed
system.cpu00.commit.swp_count                       0                       # Number of s/w prefetches committed
system.cpu00.commit.refs                     59984944                       # Number of memory references committed
system.cpu00.commit.loads                    39987300                       # Number of loads committed
system.cpu00.commit.membars                        28                       # Number of memory barriers committed
system.cpu00.commit.branches                 20001763                       # Number of branches committed
system.cpu00.commit.fp_insts                       16                       # Number of committed floating point instructions.
system.cpu00.commit.int_insts                80006402                       # Number of committed integer instructions.
system.cpu00.commit.function_calls               2228                       # Number of function calls committed.
system.cpu00.commit.op_class_0::No_OpClass            0      0.00%      0.00% # Class of committed instruction
system.cpu00.commit.op_class_0::IntAlu       40018669     40.02%     40.02% # Class of committed instruction
system.cpu00.commit.op_class_0::IntMult             8      0.00%     40.02% # Class of committed instruction
system.cpu00.commit.op_class_0::IntDiv              0      0.00%     40.02% # Class of committed instruction
system.cpu00.commit.op_class_0::FloatAdd            0      0.00%     40.02% # Class of committed instruction
system.cpu00.commit.op_class_0::FloatCmp            0      0.00%     40.02% # Class of committed instruction
system.cpu00.commit.op_class_0::FloatCvt            0      0.00%     40.02% # Class of committed instruction
system.cpu00.commit.op_class_0::FloatMult            0      0.00%     40.02% # Class of committed instruction
system.cpu00.commit.op_class_0::FloatDiv            0      0.00%     40.02% # Class of committed instruction
system.cpu00.commit.op_class_0::FloatSqrt            0      0.00%     40.02% # Class of committed instruction
system.cpu00.commit.op_class_0::SimdAdd             0      0.00%     40.02% # Class of committed instruction
system.cpu00.commit.op_class_0::SimdAddAcc            0      0.00%     40.02% # Class of committed instruction
system.cpu00.commit.op_class_0::SimdAlu             0      0.00%     40.02% # Class of committed instruction
system.cpu00.commit.op_class_0::SimdCmp             0      0.00%     40.02% # Class of committed instruction
system.cpu00.commit.op_class_0::SimdCvt             0      0.00%     40.02% # Class of committed instruction
system.cpu00.commit.op_class_0::SimdMisc            0      0.00%     40.02% # Class of committed instruction
system.cpu00.commit.op_class_0::SimdMult            0      0.00%     40.02% # Class of committed instruction
system.cpu00.commit.op_class_0::SimdMultAcc            0      0.00%     40.02% # Class of committed instruction
system.cpu00.commit.op_class_0::SimdShift            0      0.00%     40.02% # Class of committed instruction
system.cpu00.commit.op_class_0::SimdShiftAcc            0      0.00%     40.02% # Class of committed instruction
system.cpu00.commit.op_class_0::SimdSqrt            0      0.00%     40.02% # Class of committed instruction
system.cpu00.commit.op_class_0::SimdFloatAdd            0      0.00%     40.02% # Class of committed instruction
system.cpu00.commit.op_class_0::SimdFloatAlu            0      0.00%     40.02% # Class of committed instruction
system.cpu00.commit.op_class_0::SimdFloatCmp            0      0.00%     40.02% # Class of committed instruction
system.cpu00.commit.op_class_0::SimdFloatCvt            0      0.00%     40.02% # Class of committed instruction
system.cpu00.commit.op_class_0::SimdFloatDiv            0      0.00%     40.02% # Class of committed instruction
system.cpu00.commit.op_class_0::SimdFloatMisc            3      0.00%     40.02% # Class of committed instruction
system.cpu00.commit.op_class_0::SimdFloatMult            0      0.00%     40.02% # Class of committed instruction
system.cpu00.commit.op_class_0::SimdFloatMultAcc            0      0.00%     40.02% # Class of committed instruction
system.cpu00.commit.op_class_0::SimdFloatSqrt            0      0.00%     40.02% # Class of committed instruction
system.cpu00.commit.op_class_0::MemRead      39987300     39.99%     80.00% # Class of committed instruction
system.cpu00.commit.op_class_0::MemWrite     19997644     20.00%    100.00% # Class of committed instruction
system.cpu00.commit.op_class_0::IprAccess            0      0.00%    100.00% # Class of committed instruction
system.cpu00.commit.op_class_0::InstPrefetch            0      0.00%    100.00% # Class of committed instruction
system.cpu00.commit.op_class_0::total       100003624                       # Class of committed instruction
system.cpu00.commit.bw_lim_events                 100                       # number cycles where commit BW limit reached
system.cpu00.rob.rob_reads                  140032716                       # The number of ROB reads
system.cpu00.rob.rob_writes                 200021081                       # The number of ROB writes
system.cpu00.timesIdled                           228                       # Number of times that the entire CPU went into an idle state and unscheduled itself
system.cpu00.idleCycles                          7165                       # Total number of cycles that the CPU has spent unscheduled due to idling
system.cpu00.committedInsts                 100000002                       # Number of Instructions Simulated
system.cpu00.committedOps                   100003624                       # Number of Ops (including micro ops) Simulated
system.cpu00.cpi                             0.400317                       # CPI: Cycles Per Instruction
system.cpu00.cpi_total                       0.400317                       # CPI: Total CPI of All Threads
system.cpu00.ipc                             2.498020                       # IPC: Instructions Per Cycle
system.cpu00.ipc_total                       2.498020                       # IPC: Total IPC of All Threads
system.cpu00.int_regfile_reads              100006182                       # number of integer regfile reads
system.cpu00.int_regfile_writes              40011688                       # number of integer regfile writes
system.cpu00.fp_regfile_reads                    2576                       # number of floating regfile reads
system.cpu00.cc_regfile_reads               419984125                       # number of cc regfile reads
system.cpu00.cc_regfile_writes               59995646                       # number of cc regfile writes
system.cpu00.misc_regfile_reads              62346402                       # number of misc regfile reads
system.cpu00.misc_regfile_writes                   58                       # number of misc regfile writes
system.cpu00.dcache.tags.replacements             618                       # number of replacements
system.cpu00.dcache.tags.tagsinuse          79.938657                       # Cycle average of tags in use
system.cpu00.dcache.tags.total_refs          39987872                       # Total number of references to valid blocks.
system.cpu00.dcache.tags.sampled_refs             680                       # Sample count of references to valid blocks.
system.cpu00.dcache.tags.avg_refs        58805.694118                       # Average number of references to valid blocks.
system.cpu00.dcache.tags.warmup_cycle        26861000                       # Cycle when the warmup percentage was hit.
system.cpu00.dcache.tags.occ_blocks::cpu00.data    79.938657                       # Average occupied blocks per requestor
system.cpu00.dcache.tags.occ_percent::cpu00.data     0.156130                       # Average percentage of cache occupancy
system.cpu00.dcache.tags.occ_percent::total     0.156130                       # Average percentage of cache occupancy
system.cpu00.dcache.tags.occ_task_id_blocks::1024           62                       # Occupied blocks per task id
system.cpu00.dcache.tags.age_task_id_blocks_1024::4           62                       # Occupied blocks per task id
system.cpu00.dcache.tags.occ_task_id_percent::1024     0.121094                       # Percentage of cache occupancy per task id
system.cpu00.dcache.tags.tag_accesses        79989050                       # Number of tag accesses
system.cpu00.dcache.tags.data_accesses       79989050                       # Number of data accesses
system.cpu00.dcache.ReadReq_hits::cpu00.data     19996109                       # number of ReadReq hits
system.cpu00.dcache.ReadReq_hits::total      19996109                       # number of ReadReq hits
system.cpu00.dcache.WriteReq_hits::cpu00.data     19993004                       # number of WriteReq hits
system.cpu00.dcache.WriteReq_hits::total     19993004                       # number of WriteReq hits
system.cpu00.dcache.LoadLockedReq_hits::cpu00.data           25                       # number of LoadLockedReq hits
system.cpu00.dcache.LoadLockedReq_hits::total           25                       # number of LoadLockedReq hits
system.cpu00.dcache.StoreCondReq_hits::cpu00.data           27                       # number of StoreCondReq hits
system.cpu00.dcache.StoreCondReq_hits::total           27                       # number of StoreCondReq hits
system.cpu00.dcache.demand_hits::cpu00.data     39989113                       # number of demand (read+write) hits
system.cpu00.dcache.demand_hits::total       39989113                       # number of demand (read+write) hits
system.cpu00.dcache.overall_hits::cpu00.data     39989113                       # number of overall hits
system.cpu00.dcache.overall_hits::total      39989113                       # number of overall hits
system.cpu00.dcache.ReadReq_misses::cpu00.data          214                       # number of ReadReq misses
system.cpu00.dcache.ReadReq_misses::total          214                       # number of ReadReq misses
system.cpu00.dcache.WriteReq_misses::cpu00.data         4568                       # number of WriteReq misses
system.cpu00.dcache.WriteReq_misses::total         4568                       # number of WriteReq misses
system.cpu00.dcache.LoadLockedReq_misses::cpu00.data            5                       # number of LoadLockedReq misses
system.cpu00.dcache.LoadLockedReq_misses::total            5                       # number of LoadLockedReq misses
system.cpu00.dcache.demand_misses::cpu00.data         4782                       # number of demand (read+write) misses
system.cpu00.dcache.demand_misses::total         4782                       # number of demand (read+write) misses
system.cpu00.dcache.overall_misses::cpu00.data         4782                       # number of overall misses
system.cpu00.dcache.overall_misses::total         4782                       # number of overall misses
system.cpu00.dcache.ReadReq_miss_latency::cpu00.data      8633487                       # number of ReadReq miss cycles
system.cpu00.dcache.ReadReq_miss_latency::total      8633487                       # number of ReadReq miss cycles
system.cpu00.dcache.WriteReq_miss_latency::cpu00.data    230049999                       # number of WriteReq miss cycles
system.cpu00.dcache.WriteReq_miss_latency::total    230049999                       # number of WriteReq miss cycles
system.cpu00.dcache.LoadLockedReq_miss_latency::cpu00.data       171500                       # number of LoadLockedReq miss cycles
system.cpu00.dcache.LoadLockedReq_miss_latency::total       171500                       # number of LoadLockedReq miss cycles
system.cpu00.dcache.demand_miss_latency::cpu00.data    238683486                       # number of demand (read+write) miss cycles
system.cpu00.dcache.demand_miss_latency::total    238683486                       # number of demand (read+write) miss cycles
system.cpu00.dcache.overall_miss_latency::cpu00.data    238683486                       # number of overall miss cycles
system.cpu00.dcache.overall_miss_latency::total    238683486                       # number of overall miss cycles
system.cpu00.dcache.ReadReq_accesses::cpu00.data     19996323                       # number of ReadReq accesses(hits+misses)
system.cpu00.dcache.ReadReq_accesses::total     19996323                       # number of ReadReq accesses(hits+misses)
system.cpu00.dcache.WriteReq_accesses::cpu00.data     19997572                       # number of WriteReq accesses(hits+misses)
system.cpu00.dcache.WriteReq_accesses::total     19997572                       # number of WriteReq accesses(hits+misses)
system.cpu00.dcache.LoadLockedReq_accesses::cpu00.data           30                       # number of LoadLockedReq accesses(hits+misses)
system.cpu00.dcache.LoadLockedReq_accesses::total           30                       # number of LoadLockedReq accesses(hits+misses)
system.cpu00.dcache.StoreCondReq_accesses::cpu00.data           27                       # number of StoreCondReq accesses(hits+misses)
system.cpu00.dcache.StoreCondReq_accesses::total           27                       # number of StoreCondReq accesses(hits+misses)
system.cpu00.dcache.demand_accesses::cpu00.data     39993895                       # number of demand (read+write) accesses
system.cpu00.dcache.demand_accesses::total     39993895                       # number of demand (read+write) accesses
system.cpu00.dcache.overall_accesses::cpu00.data     39993895                       # number of overall (read+write) accesses
system.cpu00.dcache.overall_accesses::total     39993895                       # number of overall (read+write) accesses
system.cpu00.dcache.ReadReq_miss_rate::cpu00.data     0.000011                       # miss rate for ReadReq accesses
system.cpu00.dcache.ReadReq_miss_rate::total     0.000011                       # miss rate for ReadReq accesses
system.cpu00.dcache.WriteReq_miss_rate::cpu00.data     0.000228                       # miss rate for WriteReq accesses
system.cpu00.dcache.WriteReq_miss_rate::total     0.000228                       # miss rate for WriteReq accesses
system.cpu00.dcache.LoadLockedReq_miss_rate::cpu00.data     0.166667                       # miss rate for LoadLockedReq accesses
system.cpu00.dcache.LoadLockedReq_miss_rate::total     0.166667                       # miss rate for LoadLockedReq accesses
system.cpu00.dcache.demand_miss_rate::cpu00.data     0.000120                       # miss rate for demand accesses
system.cpu00.dcache.demand_miss_rate::total     0.000120                       # miss rate for demand accesses
system.cpu00.dcache.overall_miss_rate::cpu00.data     0.000120                       # miss rate for overall accesses
system.cpu00.dcache.overall_miss_rate::total     0.000120                       # miss rate for overall accesses
[...]
system.tol2bus.pkt_count_system.cpu10.dcache.mem_side::system.l2.cpu_side       844148                       # Packet count per connected master and slave (bytes)
system.tol2bus.pkt_count_system.cpu11.icache.mem_side::system.l2.cpu_side         9310                       # Packet count per connected master and slave (bytes)
system.tol2bus.pkt_count_system.cpu11.dcache.mem_side::system.l2.cpu_side       895464                       # Packet count per connected master and slave (bytes)
system.tol2bus.pkt_count_system.cpu12.icache.mem_side::system.l2.cpu_side         8588                       # Packet count per connected master and slave (bytes)
system.tol2bus.pkt_count_system.cpu12.dcache.mem_side::system.l2.cpu_side       872156                       # Packet count per connected master and slave (bytes)
system.tol2bus.pkt_count_system.cpu13.icache.mem_side::system.l2.cpu_side         7759                       # Packet count per connected master and slave (bytes)
system.tol2bus.pkt_count_system.cpu13.dcache.mem_side::system.l2.cpu_side       876331                       # Packet count per connected master and slave (bytes)
system.tol2bus.pkt_count_system.cpu14.icache.mem_side::system.l2.cpu_side         5776                       # Packet count per connected master and slave (bytes)
system.tol2bus.pkt_count_system.cpu14.dcache.mem_side::system.l2.cpu_side       921800                       # Packet count per connected master and slave (bytes)
system.tol2bus.pkt_count_system.cpu15.icache.mem_side::system.l2.cpu_side         9248                       # Packet count per connected master and slave (bytes)
system.tol2bus.pkt_count_system.cpu15.dcache.mem_side::system.l2.cpu_side       871185                       # Packet count per connected master and slave (bytes)
system.tol2bus.pkt_count_system.cpu16.icache.mem_side::system.l2.cpu_side         5475                       # Packet count per connected master and slave (bytes)
system.tol2bus.pkt_count_system.cpu16.dcache.mem_side::system.l2.cpu_side       627095                       # Packet count per connected master and slave (bytes)
system.tol2bus.pkt_count::total              13890207                       # Packet count per connected master and slave (bytes)
system.tol2bus.pkt_size_system.cpu00.icache.mem_side::system.l2.cpu_side        22528                       # Cumulative packet size per connected master and slave (bytes)
system.tol2bus.pkt_size_system.cpu00.dcache.mem_side::system.l2.cpu_side       107840                       # Cumulative packet size per connected master and slave (bytes)
system.tol2bus.pkt_size_system.cpu01.icache.mem_side::system.l2.cpu_side       168256                       # Cumulative packet size per connected master and slave (bytes)
system.tol2bus.pkt_size_system.cpu01.dcache.mem_side::system.l2.cpu_side      1162624                       # Cumulative packet size per connected master and slave (bytes)
system.tol2bus.pkt_size_system.cpu02.icache.mem_side::system.l2.cpu_side       219584                       # Cumulative packet size per connected master and slave (bytes)
system.tol2bus.pkt_size_system.cpu02.dcache.mem_side::system.l2.cpu_side       997440                       # Cumulative packet size per connected master and slave (bytes)
system.tol2bus.pkt_size_system.cpu03.icache.mem_side::system.l2.cpu_side       283072                       # Cumulative packet size per connected master and slave (bytes)
system.tol2bus.pkt_size_system.cpu03.dcache.mem_side::system.l2.cpu_side      1142720                       # Cumulative packet size per connected master and slave (bytes)
system.tol2bus.pkt_size_system.cpu04.icache.mem_side::system.l2.cpu_side       174592                       # Cumulative packet size per connected master and slave (bytes)
system.tol2bus.pkt_size_system.cpu04.dcache.mem_side::system.l2.cpu_side      1179072                       # Cumulative packet size per connected master and slave (bytes)
system.tol2bus.pkt_size_system.cpu05.icache.mem_side::system.l2.cpu_side       263232                       # Cumulative packet size per connected master and slave (bytes)
system.tol2bus.pkt_size_system.cpu05.dcache.mem_side::system.l2.cpu_side      1092736                       # Cumulative packet size per connected master and slave (bytes)
system.tol2bus.pkt_size_system.cpu06.icache.mem_side::system.l2.cpu_side       239360                       # Cumulative packet size per connected master and slave (bytes)
system.tol2bus.pkt_size_system.cpu06.dcache.mem_side::system.l2.cpu_side      1134592                       # Cumulative packet size per connected master and slave (bytes)
system.tol2bus.pkt_size_system.cpu07.icache.mem_side::system.l2.cpu_side       255232                       # Cumulative packet size per connected master and slave (bytes)
system.tol2bus.pkt_size_system.cpu07.dcache.mem_side::system.l2.cpu_side      1163712                       # Cumulative packet size per connected master and slave (bytes)
system.tol2bus.pkt_size_system.cpu08.icache.mem_side::system.l2.cpu_side       241792                       # Cumulative packet size per connected master and slave (bytes)
system.tol2bus.pkt_size_system.cpu08.dcache.mem_side::system.l2.cpu_side      1096768                       # Cumulative packet size per connected master and slave (bytes)
system.tol2bus.pkt_size_system.cpu09.icache.mem_side::system.l2.cpu_side       185088                       # Cumulative packet size per connected master and slave (bytes)
system.tol2bus.pkt_size_system.cpu09.dcache.mem_side::system.l2.cpu_side      1209536                       # Cumulative packet size per connected master and slave (bytes)
system.tol2bus.pkt_size_system.cpu10.icache.mem_side::system.l2.cpu_side       260544                       # Cumulative packet size per connected master and slave (bytes)
system.tol2bus.pkt_size_system.cpu10.dcache.mem_side::system.l2.cpu_side      1161984                       # Cumulative packet size per connected master and slave (bytes)
system.tol2bus.pkt_size_system.cpu11.icache.mem_side::system.l2.cpu_side       297920                       # Cumulative packet size per connected master and slave (bytes)
system.tol2bus.pkt_size_system.cpu11.dcache.mem_side::system.l2.cpu_side      1122112                       # Cumulative packet size per connected master and slave (bytes)
system.tol2bus.pkt_size_system.cpu12.icache.mem_side::system.l2.cpu_side       274816                       # Cumulative packet size per connected master and slave (bytes)
system.tol2bus.pkt_size_system.cpu12.dcache.mem_side::system.l2.cpu_side      1238336                       # Cumulative packet size per connected master and slave (bytes)
system.tol2bus.pkt_size_system.cpu13.icache.mem_side::system.l2.cpu_side       248256                       # Cumulative packet size per connected master and slave (bytes)
system.tol2bus.pkt_size_system.cpu13.dcache.mem_side::system.l2.cpu_side      1003520                       # Cumulative packet size per connected master and slave (bytes)
system.tol2bus.pkt_size_system.cpu14.icache.mem_side::system.l2.cpu_side       184832                       # Cumulative packet size per connected master and slave (bytes)
system.tol2bus.pkt_size_system.cpu14.dcache.mem_side::system.l2.cpu_side      1121600                       # Cumulative packet size per connected master and slave (bytes)
system.tol2bus.pkt_size_system.cpu15.icache.mem_side::system.l2.cpu_side       295936                       # Cumulative packet size per connected master and slave (bytes)
system.tol2bus.pkt_size_system.cpu15.dcache.mem_side::system.l2.cpu_side      1093120                       # Cumulative packet size per connected master and slave (bytes)
system.tol2bus.pkt_size_system.cpu16.icache.mem_side::system.l2.cpu_side       175168                       # Cumulative packet size per connected master and slave (bytes)
system.tol2bus.pkt_size_system.cpu16.dcache.mem_side::system.l2.cpu_side      1059136                       # Cumulative packet size per connected master and slave (bytes)
system.tol2bus.pkt_size::total               21877056                       # Cumulative packet size per connected master and slave (bytes)
system.tol2bus.snoops                        12478175                       # Total snoops (count)
system.tol2bus.snoop_fanout::samples         13199508                       # Request fanout histogram
system.tol2bus.snoop_fanout::mean                  33                       # Request fanout histogram
system.tol2bus.snoop_fanout::stdev                  0                       # Request fanout histogram
system.tol2bus.snoop_fanout::underflows             0      0.00%      0.00% # Request fanout histogram
system.tol2bus.snoop_fanout::0                      0      0.00%      0.00% # Request fanout histogram
system.tol2bus.snoop_fanout::1                      0      0.00%      0.00% # Request fanout histogram
system.tol2bus.snoop_fanout::2                      0      0.00%      0.00% # Request fanout histogram
system.tol2bus.snoop_fanout::3                      0      0.00%      0.00% # Request fanout histogram
system.tol2bus.snoop_fanout::4                      0      0.00%      0.00% # Request fanout histogram
system.tol2bus.snoop_fanout::5                      0      0.00%      0.00% # Request fanout histogram
system.tol2bus.snoop_fanout::6                      0      0.00%      0.00% # Request fanout histogram
system.tol2bus.snoop_fanout::7                      0      0.00%      0.00% # Request fanout histogram
system.tol2bus.snoop_fanout::8                      0      0.00%      0.00% # Request fanout histogram
system.tol2bus.snoop_fanout::9                      0      0.00%      0.00% # Request fanout histogram
system.tol2bus.snoop_fanout::10                     0      0.00%      0.00% # Request fanout histogram
system.tol2bus.snoop_fanout::11                     0      0.00%      0.00% # Request fanout histogram
system.tol2bus.snoop_fanout::12                     0      0.00%      0.00% # Request fanout histogram
system.tol2bus.snoop_fanout::13                     0      0.00%      0.00% # Request fanout histogram
system.tol2bus.snoop_fanout::14                     0      0.00%      0.00% # Request fanout histogram
system.tol2bus.snoop_fanout::15                     0      0.00%      0.00% # Request fanout histogram
system.tol2bus.snoop_fanout::16                     0      0.00%      0.00% # Request fanout histogram
system.tol2bus.snoop_fanout::17                     0      0.00%      0.00% # Request fanout histogram
system.tol2bus.snoop_fanout::18                     0      0.00%      0.00% # Request fanout histogram
system.tol2bus.snoop_fanout::19                     0      0.00%      0.00% # Request fanout histogram
system.tol2bus.snoop_fanout::20                     0      0.00%      0.00% # Request fanout histogram
system.tol2bus.snoop_fanout::21                     0      0.00%      0.00% # Request fanout histogram
system.tol2bus.snoop_fanout::22                     0      0.00%      0.00% # Request fanout histogram
system.tol2bus.snoop_fanout::23                     0      0.00%      0.00% # Request fanout histogram
system.tol2bus.snoop_fanout::24                     0      0.00%      0.00% # Request fanout histogram
system.tol2bus.snoop_fanout::25                     0      0.00%      0.00% # Request fanout histogram
system.tol2bus.snoop_fanout::26                     0      0.00%      0.00% # Request fanout histogram
system.tol2bus.snoop_fanout::27                     0      0.00%      0.00% # Request fanout histogram
system.tol2bus.snoop_fanout::28                     0      0.00%      0.00% # Request fanout histogram
system.tol2bus.snoop_fanout::29                     0      0.00%      0.00% # Request fanout histogram
system.tol2bus.snoop_fanout::30                     0      0.00%      0.00% # Request fanout histogram
system.tol2bus.snoop_fanout::31                     0      0.00%      0.00% # Request fanout histogram
system.tol2bus.snoop_fanout::32                     0      0.00%      0.00% # Request fanout histogram
system.tol2bus.snoop_fanout::33              13199508    100.00%    100.00% # Request fanout histogram
system.tol2bus.snoop_fanout::34                     0      0.00%    100.00% # Request fanout histogram
system.tol2bus.snoop_fanout::overflows              0      0.00%    100.00% # Request fanout histogram
system.tol2bus.snoop_fanout::min_value             33                       # Request fanout histogram
system.tol2bus.snoop_fanout::max_value             33                       # Request fanout histogram
system.tol2bus.snoop_fanout::total           13199508                       # Request fanout histogram
system.tol2bus.reqLayer0.occupancy         6688753883                       # Layer occupancy (ticks)
system.tol2bus.reqLayer0.utilization             16.7                       # Layer utilization (%)
system.tol2bus.respLayer0.occupancy            528499                       # Layer occupancy (ticks)
system.tol2bus.respLayer0.utilization             0.0                       # Layer utilization (%)
system.tol2bus.respLayer1.occupancy           1724491                       # Layer occupancy (ticks)
system.tol2bus.respLayer1.utilization             0.0                       # Layer utilization (%)
system.tol2bus.respLayer4.occupancy           3968928                       # Layer occupancy (ticks)
system.tol2bus.respLayer4.utilization             0.0                       # Layer utilization (%)
system.tol2bus.respLayer5.occupancy        1422974564                       # Layer occupancy (ticks)
system.tol2bus.respLayer5.utilization             3.6                       # Layer utilization (%)
system.tol2bus.respLayer8.occupancy           5158469                       # Layer occupancy (ticks)
system.tol2bus.respLayer8.utilization             0.0                       # Layer utilization (%)
system.tol2bus.respLayer9.occupancy        1306545205                       # Layer occupancy (ticks)
system.tol2bus.respLayer9.utilization             3.3                       # Layer utilization (%)
system.tol2bus.respLayer12.occupancy          6654927                       # Layer occupancy (ticks)
system.tol2bus.respLayer12.utilization            0.0                       # Layer utilization (%)
system.tol2bus.respLayer13.occupancy       1329095689                       # Layer occupancy (ticks)
system.tol2bus.respLayer13.utilization            3.3                       # Layer utilization (%)
system.tol2bus.respLayer16.occupancy          4115434                       # Layer occupancy (ticks)
system.tol2bus.respLayer16.utilization            0.0                       # Layer utilization (%)
system.tol2bus.respLayer17.occupancy       1452637298                       # Layer occupancy (ticks)
system.tol2bus.respLayer17.utilization            3.6                       # Layer utilization (%)
system.tol2bus.respLayer20.occupancy          6174988                       # Layer occupancy (ticks)
system.tol2bus.respLayer20.utilization            0.0                       # Layer utilization (%)
system.tol2bus.respLayer21.occupancy       1364092105                       # Layer occupancy (ticks)
system.tol2bus.respLayer21.utilization            3.4                       # Layer utilization (%)
system.tol2bus.respLayer24.occupancy          5620975                       # Layer occupancy (ticks)
system.tol2bus.respLayer24.utilization            0.0                       # Layer utilization (%)
system.tol2bus.respLayer25.occupancy       1356132919                       # Layer occupancy (ticks)
system.tol2bus.respLayer25.utilization            3.4                       # Layer utilization (%)
system.tol2bus.respLayer28.occupancy          5987852                       # Layer occupancy (ticks)
system.tol2bus.respLayer28.utilization            0.0                       # Layer utilization (%)
system.tol2bus.respLayer29.occupancy       1393612078                       # Layer occupancy (ticks)
system.tol2bus.respLayer29.utilization            3.5                       # Layer utilization (%)
system.tol2bus.respLayer32.occupancy          5669988                       # Layer occupancy (ticks)
system.tol2bus.respLayer32.utilization            0.0                       # Layer utilization (%)
system.tol2bus.respLayer33.occupancy       1440998399                       # Layer occupancy (ticks)
system.tol2bus.respLayer33.utilization            3.6                       # Layer utilization (%)
system.tol2bus.respLayer36.occupancy          4338992                       # Layer occupancy (ticks)
system.tol2bus.respLayer36.utilization            0.0                       # Layer utilization (%)
system.tol2bus.respLayer37.occupancy       1409234620                       # Layer occupancy (ticks)
system.tol2bus.respLayer37.utilization            3.5                       # Layer utilization (%)
system.tol2bus.respLayer40.occupancy          6110985                       # Layer occupancy (ticks)
system.tol2bus.respLayer40.utilization            0.0                       # Layer utilization (%)
system.tol2bus.respLayer41.occupancy       1326311120                       # Layer occupancy (ticks)
system.tol2bus.respLayer41.utilization            3.3                       # Layer utilization (%)
system.tol2bus.respLayer44.occupancy          6984986                       # Layer occupancy (ticks)
system.tol2bus.respLayer44.utilization            0.0                       # Layer utilization (%)
system.tol2bus.respLayer45.occupancy       1419134225                       # Layer occupancy (ticks)
system.tol2bus.respLayer45.utilization            3.5                       # Layer utilization (%)
system.tol2bus.respLayer48.occupancy          6451459                       # Layer occupancy (ticks)
system.tol2bus.respLayer48.utilization            0.0                       # Layer utilization (%)
system.tol2bus.respLayer49.occupancy       1365427518                       # Layer occupancy (ticks)
system.tol2bus.respLayer49.utilization            3.4                       # Layer utilization (%)
system.tol2bus.respLayer52.occupancy          5823494                       # Layer occupancy (ticks)
system.tol2bus.respLayer52.utilization            0.0                       # Layer utilization (%)
system.tol2bus.respLayer53.occupancy       1394818211                       # Layer occupancy (ticks)
system.tol2bus.respLayer53.utilization            3.5                       # Layer utilization (%)
system.tol2bus.respLayer56.occupancy          4337980                       # Layer occupancy (ticks)
system.tol2bus.respLayer56.utilization            0.0                       # Layer utilization (%)
system.tol2bus.respLayer57.occupancy       1468753595                       # Layer occupancy (ticks)
system.tol2bus.respLayer57.utilization            3.7                       # Layer utilization (%)
system.tol2bus.respLayer60.occupancy          6939984                       # Layer occupancy (ticks)
system.tol2bus.respLayer60.utilization            0.0                       # Layer utilization (%)
system.tol2bus.respLayer61.occupancy       1376738555                       # Layer occupancy (ticks)
system.tol2bus.respLayer61.utilization            3.4                       # Layer utilization (%)
system.tol2bus.respLayer64.occupancy          4116962                       # Layer occupancy (ticks)
system.tol2bus.respLayer64.utilization            0.0                       # Layer utilization (%)
system.tol2bus.respLayer65.occupancy        967214359                       # Layer occupancy (ticks)
system.tol2bus.respLayer65.utilization            2.4                       # Layer utilization (%)

---------- End Simulation Statistics   ----------
