
---------- Begin Simulation Statistics ----------
sim_seconds                                  0.040028                       # Number of seconds simulated
sim_ticks                                 40027892000                       # Number of ticks simulated
final_tick                                40027892000                       # Number of ticks from beginning of simulation (restored from checkpoints and never reset)
sim_freq                                 1000000000000                       # Frequency of simulated ticks
host_inst_rate                                 160301                       # Simulator instruction rate (inst/s)
host_op_rate                                   166303                       # Simulator op (including micro ops) rate (op/s)
host_tick_rate                               37928879                       # Simulator tick rate (ticks/s)
host_mem_usage                                 702208                       # Number of bytes of host memory used
host_seconds                                  1055.34                       # Real time elapsed on the host
sim_insts                                   169171997                       # Number of instructions simulated
sim_ops                                     175506035                       # Number of ops (including micro ops) simulated
system.voltage_domain.voltage                       1                       # Voltage in Volts
system.clk_domain.clock                          1000                       # Clock period in ticks
system.physmem.bytes_read::cpu0.inst            20864                       # Number of bytes read from this memory
system.physmem.bytes_read::cpu0.data            66560                       # Number of bytes read from this memory
system.physmem.bytes_read::cpu1.inst             2112                       # Number of bytes read from this memory
system.physmem.bytes_read::cpu1.data          2193472                       # Number of bytes read from this memory
system.physmem.bytes_read::cpu2.inst             7488                       # Number of bytes read from this memory
system.physmem.bytes_read::cpu2.data          2210816                       # Number of bytes read from this memory
system.physmem.bytes_read::cpu3.inst             6592                       # Number of bytes read from this memory
system.physmem.bytes_read::cpu3.data          2422848                       # Number of bytes read from this memory
system.physmem.bytes_read::cpu4.inst             5952                       # Number of bytes read from this memory
system.physmem.bytes_read::cpu4.data          2230272                       # Number of bytes read from this memory
system.physmem.bytes_read::total              9166976                       # Number of bytes read from this memory
system.physmem.bytes_inst_read::cpu0.inst        20864                       # Number of instructions bytes read from this memory
system.physmem.bytes_inst_read::cpu1.inst         2112                       # Number of instructions bytes read from this memory
system.physmem.bytes_inst_read::cpu2.inst         7488                       # Number of instructions bytes read from this memory
system.physmem.bytes_inst_read::cpu3.inst         6592                       # Number of instructions bytes read from this memory
system.physmem.bytes_inst_read::cpu4.inst         5952                       # Number of instructions bytes read from this memory
system.physmem.bytes_inst_read::total           43008                       # Number of instructions bytes read from this memory
system.physmem.bytes_written::writebacks       177408                       # Number of bytes written to this memory
system.physmem.bytes_written::total            177408                       # Number of bytes written to this memory
system.physmem.num_reads::cpu0.inst               326                       # Number of read requests responded to by this memory
system.physmem.num_reads::cpu0.data              1040                       # Number of read requests responded to by this memory
system.physmem.num_reads::cpu1.inst                33                       # Number of read requests responded to by this memory
system.physmem.num_reads::cpu1.data             34273                       # Number of read requests responded to by this memory
system.physmem.num_reads::cpu2.inst               117                       # Number of read requests responded to by this memory
system.physmem.num_reads::cpu2.data             34544                       # Number of read requests responded to by this memory
system.physmem.num_reads::cpu3.inst               103                       # Number of read requests responded to by this memory
system.physmem.num_reads::cpu3.data             37857                       # Number of read requests responded to by this memory
system.physmem.num_reads::cpu4.inst                93                       # Number of read requests responded to by this memory
system.physmem.num_reads::cpu4.data             34848                       # Number of read requests responded to by this memory
system.physmem.num_reads::total                143234                       # Number of read requests responded to by this memory
system.physmem.num_writes::writebacks            2772                       # Number of write requests responded to by this memory
system.physmem.num_writes::total                 2772                       # Number of write requests responded to by this memory
system.physmem.bw_read::cpu0.inst              521237                       # Total read bandwidth from this memory (bytes/s)
system.physmem.bw_read::cpu0.data             1662841                       # Total read bandwidth from this memory (bytes/s)
system.physmem.bw_read::cpu1.inst               52763                       # Total read bandwidth from this memory (bytes/s)
system.physmem.bw_read::cpu1.data            54798589                       # Total read bandwidth from this memory (bytes/s)
system.physmem.bw_read::cpu2.inst              187070                       # Total read bandwidth from this memory (bytes/s)
system.physmem.bw_read::cpu2.data            55231887                       # Total read bandwidth from this memory (bytes/s)
system.physmem.bw_read::cpu3.inst              164685                       # Total read bandwidth from this memory (bytes/s)
system.physmem.bw_read::cpu3.data            60528993                       # Total read bandwidth from this memory (bytes/s)
system.physmem.bw_read::cpu4.inst              148696                       # Total read bandwidth from this memory (bytes/s)
system.physmem.bw_read::cpu4.data            55717948                       # Total read bandwidth from this memory (bytes/s)
system.physmem.bw_read::total               229014708                       # Total read bandwidth from this memory (bytes/s)
system.physmem.bw_inst_read::cpu0.inst         521237                       # Instruction read bandwidth from this memory (bytes/s)
system.physmem.bw_inst_read::cpu1.inst          52763                       # Instruction read bandwidth from this memory (bytes/s)
system.physmem.bw_inst_read::cpu2.inst         187070                       # Instruction read bandwidth from this memory (bytes/s)
system.physmem.bw_inst_read::cpu3.inst         164685                       # Instruction read bandwidth from this memory (bytes/s)
system.physmem.bw_inst_read::cpu4.inst         148696                       # Instruction read bandwidth from this memory (bytes/s)
system.physmem.bw_inst_read::total            1074451                       # Instruction read bandwidth from this memory (bytes/s)
system.physmem.bw_write::writebacks           4432109                       # Write bandwidth from this memory (bytes/s)
system.physmem.bw_write::total                4432109                       # Write bandwidth from this memory (bytes/s)
system.physmem.bw_total::writebacks           4432109                       # Total bandwidth to/from this memory (bytes/s)
system.physmem.bw_total::cpu0.inst             521237                       # Total bandwidth to/from this memory (bytes/s)
system.physmem.bw_total::cpu0.data            1662841                       # Total bandwidth to/from this memory (bytes/s)
system.physmem.bw_total::cpu1.inst              52763                       # Total bandwidth to/from this memory (bytes/s)
system.physmem.bw_total::cpu1.data           54798589                       # Total bandwidth to/from this memory (bytes/s)
system.physmem.bw_total::cpu2.inst             187070                       # Total bandwidth to/from this memory (bytes/s)
system.physmem.bw_total::cpu2.data           55231887                       # Total bandwidth to/from this memory (bytes/s)
system.physmem.bw_total::cpu3.inst             164685                       # Total bandwidth to/from this memory (bytes/s)
system.physmem.bw_total::cpu3.data           60528993                       # Total bandwidth to/from this memory (bytes/s)
system.physmem.bw_total::cpu4.inst             148696                       # Total bandwidth to/from this memory (bytes/s)
system.physmem.bw_total::cpu4.data           55717948                       # Total bandwidth to/from this memory (bytes/s)
system.physmem.bw_total::total              233446818                       # Total bandwidth to/from this memory (bytes/s)
system.cpu0.branchPred.lookups               20003410                       # Number of BP lookups
system.cpu0.branchPred.condPredicted         19998468                       # Number of conditional branches predicted
system.cpu0.branchPred.condIncorrect              537                       # Number of conditional branches incorrect
system.cpu0.branchPred.BTBLookups            19997753                       # Number of BTB lookups
system.cpu0.branchPred.BTBHits               19997388                       # Number of BTB hits
system.cpu0.branchPred.BTBCorrect                   0                       # Number of correct BTB predictions (this stat may not work properly.
system.cpu0.branchPred.BTBHitPct            99.998175                       # BTB Hit Percentage
system.cpu0.branchPred.usedRAS                   2321                       # Number of times the RAS was used to get a target.
system.cpu0.branchPred.RASInCorrect                58                       # Number of incorrect RAS predictions.
system.cpu0.dstage2_mmu.stage2_tlb.walker.walks            0                       # Table walker walks requested
system.cpu0.dstage2_mmu.stage2_tlb.walker.walkRequestOrigin_Requested::Data            0                       # Table walker requests started/completed, data/inst
system.cpu0.dstage2_mmu.stage2_tlb.walker.walkRequestOrigin_Requested::Inst            0                       # Table walker requests started/completed, data/inst
system.cpu0.dstage2_mmu.stage2_tlb.walker.walkRequestOrigin_Requested::total            0                       # Table walker requests started/completed, data/inst
system.cpu0.dstage2_mmu.stage2_tlb.walker.walkRequestOrigin_Completed::Data            0                       # Table walker requests started/completed, data/inst
system.cpu0.dstage2_mmu.stage2_tlb.walker.walkRequestOrigin_Completed::Inst            0                       # Table walker requests started/completed, data/inst
system.cpu0.dstage2_mmu.stage2_tlb.walker.walkRequestOrigin_Completed::total            0                       # Table walker requests started/completed, data/inst
system.cpu0.dstage2_mmu.stage2_tlb.walker.walkRequestOrigin::total            0                       # Table walker requests started/completed, data/inst
system.cpu0.dstage2_mmu.stage2_tlb.inst_hits            0                       # ITB inst hits
system.cpu0.dstage2_mmu.stage2_tlb.inst_misses            0                       # ITB inst misses
system.cpu0.dstage2_mmu.stage2_tlb.read_hits            0                       # DTB read hits
system.cpu0.dstage2_mmu.stage2_tlb.read_misses            0                       # DTB read misses
system.cpu0.dstage2_mmu.stage2_tlb.write_hits            0                       # DTB write hits
system.cpu0.dstage2_mmu.stage2_tlb.write_misses            0                       # DTB write misses
system.cpu0.dstage2_mmu.stage2_tlb.flush_tlb            0                       # Number of times complete TLB was flushed
system.cpu0.dstage2_mmu.stage2_tlb.flush_tlb_mva            0                       # Number of times TLB was flushed by MVA
system.cpu0.dstage2_mmu.stage2_tlb.flush_tlb_mva_asid            0                       # Number of times TLB was flushed by MVA & ASID
system.cpu0.dstage2_mmu.stage2_tlb.flush_tlb_asid            0                       # Number of times TLB was flushed by ASID
system.cpu0.dstage2_mmu.stage2_tlb.flush_entries            0                       # Number of entries that have been flushed from TLB
system.cpu0.dstage2_mmu.stage2_tlb.align_faults            0                       # Number of TLB faults due to alignment restrictions
system.cpu0.dstage2_mmu.stage2_tlb.prefetch_faults            0                       # Number of TLB faults due to prefetch
system.cpu0.dstage2_mmu.stage2_tlb.domain_faults            0                       # Number of TLB faults due to domain restrictions
system.cpu0.dstage2_mmu.stage2_tlb.perms_faults            0                       # Number of TLB faults due to permissions restrictions
system.cpu0.dstage2_mmu.stage2_tlb.read_accesses            0                       # DTB read accesses
system.cpu0.dstage2_mmu.stage2_tlb.write_accesses            0                       # DTB write accesses
system.cpu0.dstage2_mmu.stage2_tlb.inst_accesses            0                       # ITB inst accesses
system.cpu0.dstage2_mmu.stage2_tlb.hits             0                       # DTB hits
system.cpu0.dstage2_mmu.stage2_tlb.misses            0                       # DTB misses
system.cpu0.dstage2_mmu.stage2_tlb.accesses            0                       # DTB accesses
system.cpu0.dtb.walker.walks                        0                       # Table walker walks requested
system.cpu0.dtb.walker.walkRequestOrigin_Requested::Data            0                       # Table walker requests started/completed, data/inst
system.cpu0.dtb.walker.walkRequestOrigin_Requested::Inst            0                       # Table walker requests started/completed, data/inst
system.cpu0.dtb.walker.walkRequestOrigin_Requested::total            0                       # Table walker requests started/completed, data/inst
system.cpu0.dtb.walker.walkRequestOrigin_Completed::Data            0                       # Table walker requests started/completed, data/inst
system.cpu0.dtb.walker.walkRequestOrigin_Completed::Inst            0                       # Table walker requests started/completed, data/inst
system.cpu0.dtb.walker.walkRequestOrigin_Completed::total            0                       # Table walker requests started/completed, data/inst
system.cpu0.dtb.walker.walkRequestOrigin::total            0                       # Table walker requests started/completed, data/inst
system.cpu0.dtb.inst_hits                           0                       # ITB inst hits
system.cpu0.dtb.inst_misses                         0                       # ITB inst misses
system.cpu0.dtb.read_hits                           0                       # DTB read hits
system.cpu0.dtb.read_misses                         0                       # DTB read misses
system.cpu0.dtb.write_hits                          0                       # DTB write hits
system.cpu0.dtb.write_misses                        0                       # DTB write misses
system.cpu0.dtb.flush_tlb                           0                       # Number of times complete TLB was flushed
system.cpu0.dtb.flush_tlb_mva                       0                       # Number of times TLB was flushed by MVA
system.cpu0.dtb.flush_tlb_mva_asid                  0                       # Number of times TLB was flushed by MVA & ASID
system.cpu0.dtb.flush_tlb_asid                      0                       # Number of times TLB was flushed by ASID
system.cpu0.dtb.flush_entries                       0                       # Number of entries that have been flushed from TLB
system.cpu0.dtb.align_faults                        0                       # Number of TLB faults due to alignment restrictions
system.cpu0.dtb.prefetch_faults                     0                       # Number of TLB faults due to prefetch
system.cpu0.dtb.domain_faults                       0                       # Number of TLB faults due to domain restrictions
system.cpu0.dtb.perms_faults                        0                       # Number of TLB faults due to permissions restrictions
system.cpu0.dtb.read_accesses                       0                       # DTB read accesses
system.cpu0.dtb.write_accesses                      0                       # DTB write accesses
system.cpu0.dtb.inst_accesses                       0                       # ITB inst accesses
system.cpu0.dtb.hits                                0                       # DTB hits
system.cpu0.dtb.misses                              0                       # DTB misses
system.cpu0.dtb.accesses                            0                       # DTB accesses
system.cpu0.istage2_mmu.stage2_tlb.walker.walks            0                       # Table walker walks requested
system.cpu0.istage2_mmu.stage2_tlb.walker.walkRequestOrigin_Requested::Data            0                       # Table walker requests started/completed, data/inst
system.cpu0.istage2_mmu.stage2_tlb.walker.walkRequestOrigin_Requested::Inst            0                       # Table walker requests started/completed, data/inst
system.cpu0.istage2_mmu.stage2_tlb.walker.walkRequestOrigin_Requested::total            0                       # Table walker requests started/completed, data/inst
system.cpu0.istage2_mmu.stage2_tlb.walker.walkRequestOrigin_Completed::Data            0                       # Table walker requests started/completed, data/inst
system.cpu0.istage2_mmu.stage2_tlb.walker.walkRequestOrigin_Completed::Inst            0                       # Table walker requests started/completed, data/inst
system.cpu0.istage2_mmu.stage2_tlb.walker.walkRequestOrigin_Completed::total            0                       # Table walker requests started/completed, data/inst
system.cpu0.istage2_mmu.stage2_tlb.walker.walkRequestOrigin::total            0                       # Table walker requests started/completed, data/inst
system.cpu0.istage2_mmu.stage2_tlb.inst_hits            0                       # ITB inst hits
system.cpu0.istage2_mmu.stage2_tlb.inst_misses            0                       # ITB inst misses
system.cpu0.istage2_mmu.stage2_tlb.read_hits            0                       # DTB read hits
system.cpu0.istage2_mmu.stage2_tlb.read_misses            0                       # DTB read misses
system.cpu0.istage2_mmu.stage2_tlb.write_hits            0                       # DTB write hits
system.cpu0.istage2_mmu.stage2_tlb.write_misses            0                       # DTB write misses
system.cpu0.istage2_mmu.stage2_tlb.flush_tlb            0                       # Number of times complete TLB was flushed
system.cpu0.istage2_mmu.stage2_tlb.flush_tlb_mva            0                       # Number of times TLB was flushed by MVA
system.cpu0.istage2_mmu.stage2_tlb.flush_tlb_mva_asid            0                       # Number of times TLB was flushed by MVA & ASID
system.cpu0.istage2_mmu.stage2_tlb.flush_tlb_asid            0                       # Number of times TLB was flushed by ASID
system.cpu0.istage2_mmu.stage2_tlb.flush_entries            0                       # Number of entries that have been flushed from TLB
system.cpu0.istage2_mmu.stage2_tlb.align_faults            0                       # Number of TLB faults due to alignment restrictions
system.cpu0.istage2_mmu.stage2_tlb.prefetch_faults            0                       # Number of TLB faults due to prefetch
system.cpu0.istage2_mmu.stage2_tlb.domain_faults            0                       # Number of TLB faults due to domain restrictions
system.cpu0.istage2_mmu.stage2_tlb.perms_faults            0                       # Number of TLB faults due to permissions restrictions
system.cpu0.istage2_mmu.stage2_tlb.read_accesses            0                       # DTB read accesses
system.cpu0.istage2_mmu.stage2_tlb.write_accesses            0                       # DTB write accesses
system.cpu0.istage2_mmu.stage2_tlb.inst_accesses            0                       # ITB inst accesses
system.cpu0.istage2_mmu.stage2_tlb.hits             0                       # DTB hits
system.cpu0.istage2_mmu.stage2_tlb.misses            0                       # DTB misses
system.cpu0.istage2_mmu.stage2_tlb.accesses            0                       # DTB accesses
system.cpu0.itb.walker.walks                        0                       # Table walker walks requested
system.cpu0.itb.walker.walkRequestOrigin_Requested::Data            0                       # Table walker requests started/completed, data/inst
system.cpu0.itb.walker.walkRequestOrigin_Requested::Inst            0                       # Table walker requests started/completed, data/inst
system.cpu0.itb.walker.walkRequestOrigin_Requested::total            0                       # Table walker requests started/completed, data/inst
system.cpu0.itb.walker.walkRequestOrigin_Completed::Data            0                       # Table walker requests started/completed, data/inst
system.cpu0.itb.walker.walkRequestOrigin_Completed::Inst            0                       # Table walker requests started/completed, data/inst
system.cpu0.itb.walker.walkRequestOrigin_Completed::total            0                       # Table walker requests started/completed, data/inst
system.cpu0.itb.walker.walkRequestOrigin::total            0                       # Table walker requests started/completed, data/inst
system.cpu0.itb.inst_hits                           0                       # ITB inst hits
system.cpu0.itb.inst_misses                         0                       # ITB inst misses
system.cpu0.itb.read_hits                           0                       # DTB read hits
system.cpu0.itb.read_misses                         0                       # DTB read misses
system.cpu0.itb.write_hits                          0                       # DTB write hits
system.cpu0.itb.write_misses                        0                       # DTB write misses
system.cpu0.itb.flush_tlb                           0                       # Number of times complete TLB was flushed
system.cpu0.itb.flush_tlb_mva                       0                       # Number of times TLB was flushed by MVA
system.cpu0.itb.flush_tlb_mva_asid                  0                       # Number of times TLB was flushed by MVA & ASID
system.cpu0.itb.flush_tlb_asid                      0                       # Number of times TLB was flushed by ASID
system.cpu0.itb.flush_entries                       0                       # Number of entries that have been flushed from TLB
system.cpu0.itb.align_faults                        0                       # Number of TLB faults due to alignment restrictions
system.cpu0.itb.prefetch_faults                     0                       # Number of TLB faults due to prefetch
system.cpu0.itb.domain_faults                       0                       # Number of TLB faults due to domain restrictions
system.cpu0.itb.perms_faults                        0                       # Number of TLB faults due to permissions restrictions
system.cpu0.itb.read_accesses                       0                       # DTB read accesses
system.cpu0.itb.write_accesses                      0                       # DTB write accesses
system.cpu0.itb.inst_accesses                       0                       # ITB inst accesses
system.cpu0.itb.hits                                0                       # DTB hits
system.cpu0.itb.misses                              0                       # DTB misses
system.cpu0.itb.accesses                            0                       # DTB accesses
system.cpu0.workload.num_syscalls              259744                       # Number of system calls
system.cpu0.numCycles                        40027893                       # number of cpu cycles simulated
system.cpu0.numWorkItemsStarted                     0                       # number of work items this cpu started
system.cpu0.numWorkItemsCompleted                   0                       # number of work items this cpu completed
system.cpu0.fetch.icacheStallCycles             12532                       # Number of cycles fetch is stalled on an Icache miss
system.cpu0.fetch.Insts                     100007955                       # Number of instructions fetch has processed
system.cpu0.fetch.Branches                   20003410                       # Number of branches that fetch encountered
system.cpu0.fetch.predictedBranches          19999709                       # Number of branches that fetch has predicted taken
system.cpu0.fetch.Cycles                     40007300                       # Number of cycles fetch has run and was not squashing or blocked
system.cpu0.fetch.SquashCycles                   1284                       # Number of cycles fetch has spent squashing
system.cpu0.fetch.PendingTrapStallCycles          154                       # Number of stall cycles due to pending traps
system.cpu0.fetch.CacheLines                     6538                       # Number of cache lines fetched
system.cpu0.fetch.IcacheSquashes                  234                       # Number of outstanding Icache misses that were squashed
system.cpu0.fetch.rateDist::samples          40020628                       # Number of instructions fetched each cycle (Total)
system.cpu0.fetch.rateDist::mean             2.499016                       # Number of instructions fetched each cycle (Total)
system.cpu0.fetch.rateDist::stdev            0.502577                       # Number of instructions fetched each cycle (Total)
system.cpu0.fetch.rateDist::underflows              0      0.00%      0.00% # Number of instructions fetched each cycle (Total)
system.cpu0.fetch.rateDist::0                   16308      0.04%      0.04% # Number of instructions fetched each cycle (Total)
system.cpu0.fetch.rateDist::1                    2785      0.01%      0.05% # Number of instructions fetched each cycle (Total)
system.cpu0.fetch.rateDist::2                19995199     49.96%     50.01% # Number of instructions fetched each cycle (Total)
system.cpu0.fetch.rateDist::3                20006336     49.99%    100.00% # Number of instructions fetched each cycle (Total)
system.cpu0.fetch.rateDist::overflows               0      0.00%    100.00% # Number of instructions fetched each cycle (Total)
system.cpu0.fetch.rateDist::min_value               0                       # Number of instructions fetched each cycle (Total)
system.cpu0.fetch.rateDist::max_value               3                       # Number of instructions fetched each cycle (Total)
system.cpu0.fetch.rateDist::total            40020628                       # Number of instructions fetched each cycle (Total)
system.cpu0.fetch.branchRate                 0.499737                       # Number of branch fetches per cycle
system.cpu0.fetch.rate                       2.498457                       # Number of inst fetches per cycle
system.cpu0.decode.IdleCycles                   11466                       # Number of cycles decode is idle
system.cpu0.decode.BlockedCycles                 5481                       # Number of cycles decode is blocked
system.cpu0.decode.RunCycles                 40002506                       # Number of cycles decode is running
system.cpu0.decode.UnblockCycles                  714                       # Number of cycles decode is unblocking
system.cpu0.decode.SquashCycles                   461                       # Number of cycles decode is squashing
system.cpu0.decode.BranchResolved                2390                       # Number of times decode resolved a branch
system.cpu0.decode.BranchMispred                  187                       # Number of times decode detected a branch misprediction
system.cpu0.decode.DecodedInsts             100009676                       # Number of instructions handled by decode
system.cpu0.decode.SquashedInsts                  408                       # Number of squashed instructions handled by decode
system.cpu0.rename.SquashCycles                   461                       # Number of cycles rename is squashing
system.cpu0.rename.IdleCycles                   12057                       # Number of cycles rename is idle
system.cpu0.rename.BlockCycles                    534                       # Number of cycles rename is blocking
system.cpu0.rename.serializeStallCycles          2226                       # count of cycles rename stalled for serializing inst
system.cpu0.rename.RunCycles                 40002525                       # Number of cycles rename is running
system.cpu0.rename.UnblockCycles                 2825                       # Number of cycles rename is unblocking
system.cpu0.rename.RenamedInsts             100008865                       # Number of instructions processed by rename
system.cpu0.rename.IQFullEvents                    14                       # Number of times rename has blocked due to IQ full
system.cpu0.rename.SQFullEvents                  2672                       # Number of times rename has blocked due to SQ full
system.cpu0.rename.RenamedOperands          100010346                       # Number of destination operands rename has renamed
system.cpu0.rename.RenameLookups            460027154                       # Number of register rename lookups that rename has made
system.cpu0.rename.int_rename_lookups       100010088                       # Number of integer rename lookups
system.cpu0.rename.fp_rename_lookups               16                       # Number of floating rename lookups
system.cpu0.rename.CommittedMaps            100004338                       # Number of HB maps that are committed
system.cpu0.rename.UndoneMaps                    5981                       # Number of HB maps that are undone due to squashing
system.cpu0.rename.serializingInsts                53                       # count of serializing insts renamed
system.cpu0.rename.tempSerializingInsts            53                       # count of temporary serializing insts renamed
system.cpu0.rename.skidInsts                     1176                       # count of insts added to the skid buffer
system.cpu0.memDep0.insertedLoads            39988658                       # Number of loads inserted to the mem dependence unit.
system.cpu0.memDep0.insertedStores           19997948                       # Number of stores inserted to the mem dependence unit.
system.cpu0.memDep0.conflictingLoads         19991942                       # Number of conflicting loads.
system.cpu0.memDep0.conflictingStores        19991908                       # Number of conflicting stores.
system.cpu0.iq.iqInstsAdded                 100007448                       # Number of instructions added to the IQ (excludes non-spec)
system.cpu0.iq.iqNonSpecInstsAdded                 77                       # Number of non-speculative instructions added to the IQ
system.cpu0.iq.iqInstsIssued                100005725                       # Number of instructions issued
system.cpu0.iq.iqSquashedInstsIssued              299                       # Number of squashed instructions issued
system.cpu0.iq.iqSquashedInstsExamined           4162                       # Number of squashed instructions iterated over during squash; mainly for profiling
system.cpu0.iq.iqSquashedOperandsExamined        10522                       # Number of squashed operands that are examined and possibly removed from graph
system.cpu0.iq.iqSquashedNonSpecRemoved             5                       # Number of squashed non-spec instructions that were removed
system.cpu0.iq.issued_per_cycle::samples     40020628                       # Number of insts issued each cycle
system.cpu0.iq.issued_per_cycle::mean        2.498854                       # Number of insts issued each cycle
system.cpu0.iq.issued_per_cycle::stdev       0.706610                       # Number of insts issued each cycle
system.cpu0.iq.issued_per_cycle::underflows            0      0.00%      0.00% # Number of insts issued each cycle
system.cpu0.iq.issued_per_cycle::0              14916      0.04%      0.04% # Number of insts issued each cycle
system.cpu0.iq.issued_per_cycle::1            4943802     12.35%     12.39% # Number of insts issued each cycle
system.cpu0.iq.issued_per_cycle::2           10123807     25.30%     37.69% # Number of insts issued each cycle
system.cpu0.iq.issued_per_cycle::3           24938103     62.31%    100.00% # Number of insts issued each cycle
system.cpu0.iq.issued_per_cycle::overflows            0      0.00%    100.00% # Number of insts issued each cycle
system.cpu0.iq.issued_per_cycle::min_value            0                       # Number of insts issued each cycle
system.cpu0.iq.issued_per_cycle::max_value            3                       # Number of insts issued each cycle
system.cpu0.iq.issued_per_cycle::total       40020628                       # Number of insts issued each cycle
system.cpu0.iq.fu_full::No_OpClass                  0                       # attempts to use FU when none available
system.cpu0.iq.fu_full::IntAlu                      0                       # attempts to use FU when none available
system.cpu0.iq.fu_full::IntMult                     0                       # attempts to use FU when none available
system.cpu0.iq.fu_full::IntDiv                      0                       # attempts to use FU when none available
system.cpu0.iq.fu_full::FloatAdd                    0                       # attempts to use FU when none available
system.cpu0.iq.fu_full::FloatCmp                    0                       # attempts to use FU when none available
system.cpu0.iq.fu_full::FloatCvt                    0                       # attempts to use FU when none available
system.cpu0.iq.fu_full::FloatMult                   0                       # attempts to use FU when none available
system.cpu0.iq.fu_full::FloatDiv                    0                       # attempts to use FU when none available
system.cpu0.iq.fu_full::FloatSqrt                   0                       # attempts to use FU when none available
system.cpu0.iq.fu_full::SimdAdd                     0                       # attempts to use FU when none available
system.cpu0.iq.fu_full::SimdAddAcc                  0                       # attempts to use FU when none available
system.cpu0.iq.fu_full::SimdAlu                     0                       # attempts to use FU when none available
system.cpu0.iq.fu_full::SimdCmp                     0                       # attempts to use FU when none available
system.cpu0.iq.fu_full::SimdCvt                     0                       # attempts to use FU when none available
system.cpu0.iq.fu_full::SimdMisc                    0                       # attempts to use FU when none available
system.cpu0.iq.fu_full::SimdMult                    0                       # attempts to use FU when none available
system.cpu0.iq.fu_full::SimdMultAcc                 0                       # attempts to use FU when none available
system.cpu0.iq.fu_full::SimdShift                   0                       # attempts to use FU when none available
system.cpu0.iq.fu_full::SimdShiftAcc                0                       # attempts to use FU when none available
system.cpu0.iq.fu_full::SimdSqrt                    0                       # attempts to use FU when none available
system.cpu0.iq.fu_full::SimdFloatAdd                0                       # attempts to use FU when none available
system.cpu0.iq.fu_full::SimdFloatAlu                0                       # attempts to use FU when none available
system.cpu0.iq.fu_full::SimdFloatCmp                0                       # attempts to use FU when none available
system.cpu0.iq.fu_full::SimdFloatCvt                0                       # attempts to use FU when none available
system.cpu0.iq.fu_full::SimdFloatDiv                0                       # attempts to use FU when none available
system.cpu0.iq.fu_full::SimdFloatMisc               0                       # attempts to use FU when none available
system.cpu0.iq.fu_full::SimdFloatMult               0                       # attempts to use FU when none available
system.cpu0.iq.fu_full::SimdFloatMultAcc            0                       # attempts to use FU when none available
system.cpu0.iq.fu_full::SimdFloatSqrt               0                       # attempts to use FU when none available
system.cpu0.iq.fu_full::MemRead                     0                       # attempts to use FU when none available
system.cpu0.iq.fu_full::MemWrite                    0                       # attempts to use FU when none available
system.cpu0.iq.fu_full::IprAccess                   0                       # attempts to use FU when none available
system.cpu0.iq.fu_full::InstPrefetch                0                       # attempts to use FU when none available
system.cpu0.iq.FU_type_0::No_OpClass                0      0.00%      0.00% # Type of FU issued
system.cpu0.iq.FU_type_0::IntAlu             40019626     40.02%     40.02% # Type of FU issued
system.cpu0.iq.FU_type_0::IntMult                   6      0.00%     40.02% # Type of FU issued
system.cpu0.iq.FU_type_0::IntDiv                    0      0.00%     40.02% # Type of FU issued
system.cpu0.iq.FU_type_0::FloatAdd                  0      0.00%     40.02% # Type of FU issued
system.cpu0.iq.FU_type_0::FloatCmp                  0      0.00%     40.02% # Type of FU issued
system.cpu0.iq.FU_type_0::FloatCvt                  0      0.00%     40.02% # Type of FU issued
system.cpu0.iq.FU_type_0::FloatMult                 0      0.00%     40.02% # Type of FU issued
system.cpu0.iq.FU_type_0::FloatDiv                  0      0.00%     40.02% # Type of FU issued
system.cpu0.iq.FU_type_0::FloatSqrt                 0      0.00%     40.02% # Type of FU issued
system.cpu0.iq.FU_type_0::SimdAdd                   0      0.00%     40.02% # Type of FU issued
system.cpu0.iq.FU_type_0::SimdAddAcc                0      0.00%     40.02% # Type of FU issued
system.cpu0.iq.FU_type_0::SimdAlu                   0      0.00%     40.02% # Type of FU issued
system.cpu0.iq.FU_type_0::SimdCmp                   0      0.00%     40.02% # Type of FU issued
system.cpu0.iq.FU_type_0::SimdCvt                   0      0.00%     40.02% # Type of FU issued
system.cpu0.iq.FU_type_0::SimdMisc                  0      0.00%     40.02% # Type of FU issued
system.cpu0.iq.FU_type_0::SimdMult                  0      0.00%     40.02% # Type of FU issued
system.cpu0.iq.FU_type_0::SimdMultAcc               0      0.00%     40.02% # Type of FU issued
system.cpu0.iq.FU_type_0::SimdShift                 0      0.00%     40.02% # Type of FU issued
system.cpu0.iq.FU_type_0::SimdShiftAcc              0      0.00%     40.02% # Type of FU issued
system.cpu0.iq.FU_type_0::SimdSqrt                  0      0.00%     40.02% # Type of FU issued
system.cpu0.iq.FU_type_0::SimdFloatAdd              0      0.00%     40.02% # Type of FU issued
system.cpu0.iq.FU_type_0::SimdFloatAlu              0      0.00%     40.02% # Type of FU issued
system.cpu0.iq.FU_type_0::SimdFloatCmp              0      0.00%     40.02% # Type of FU issued
system.cpu0.iq.FU_type_0::SimdFloatCvt              0      0.00%     40.02% # Type of FU issued
system.cpu0.iq.FU_type_0::SimdFloatDiv              0      0.00%     40.02% # Type of FU issued
system.cpu0.iq.FU_type_0::SimdFloatMisc             3      0.00%     40.02% # Type of FU issued
system.cpu0.iq.FU_type_0::SimdFloatMult             0      0.00%     40.02% # Type of FU issued
system.cpu0.iq.FU_type_0::SimdFloatMultAcc            0      0.00%     40.02% # Type of FU issued
system.cpu0.iq.FU_type_0::SimdFloatSqrt             0      0.00%     40.02% # Type of FU issued
system.cpu0.iq.FU_type_0::MemRead            39988323     39.99%     80.00% # Type of FU issued
system.cpu0.iq.FU_type_0::MemWrite           19997767     20.00%    100.00% # Type of FU issued
system.cpu0.iq.FU_type_0::IprAccess                 0      0.00%    100.00% # Type of FU issued
system.cpu0.iq.FU_type_0::InstPrefetch              0      0.00%    100.00% # Type of FU issued
system.cpu0.iq.FU_type_0::total             100005725                       # Type of FU issued
system.cpu0.iq.rate                          2.498401                       # Inst issue rate
system.cpu0.iq.fu_busy_cnt                          0                       # FU busy when requested
system.cpu0.iq.fu_busy_rate                         0                       # FU busy rate (busy events/executed inst)
system.cpu0.iq.int_inst_queue_reads         240032342                       # Number of integer instruction queue reads
system.cpu0.iq.int_inst_queue_writes        100011762                       # Number of integer instruction queue writes
system.cpu0.iq.int_inst_queue_wakeup_accesses    100005010                       # Number of integer instruction queue wakeup accesses
system.cpu0.iq.fp_inst_queue_reads                 32                       # Number of floating instruction queue reads
system.cpu0.iq.fp_inst_queue_writes                16                       # Number of floating instruction queue writes
system.cpu0.iq.fp_inst_queue_wakeup_accesses           16                       # Number of floating instruction queue wakeup accesses
system.cpu0.iq.int_alu_accesses             100005709                       # Number of integer alu accesses
system.cpu0.iq.fp_alu_accesses                     16                       # Number of floating point alu accesses
system.cpu0.iew.lsq.thread0.forwLoads        19992088                       # Number of loads that had data forwarded from stores
system.cpu0.iew.lsq.thread0.invAddrLoads            0                       # Number of loads ignored due to an invalid address
system.cpu0.iew.lsq.thread0.squashedLoads         1125                       # Number of loads squashed
system.cpu0.iew.lsq.thread0.ignoredResponses            3                       # Number of memory responses ignored because the instruction is squashed
system.cpu0.iew.lsq.thread0.memOrderViolation           91                       # Number of memory ordering violations
system.cpu0.iew.lsq.thread0.squashedStores          423                       # Number of stores squashed
system.cpu0.iew.lsq.thread0.invAddrSwpfs            0                       # Number of software prefetches ignored due to an invalid address
system.cpu0.iew.lsq.thread0.blockedLoads            0                       # Number of blocked loads due to partial load-store forwarding
system.cpu0.iew.lsq.thread0.rescheduledLoads            1                       # Number of loads that were rescheduled
system.cpu0.iew.lsq.thread0.cacheBlocked            9                       # Number of times an access to memory failed due to the cache being blocked
system.cpu0.iew.iewIdleCycles                       0                       # Number of cycles IEW is idle
system.cpu0.iew.iewSquashCycles                   461                       # Number of cycles IEW is squashing
system.cpu0.iew.iewBlockCycles                    403                       # Number of cycles IEW is blocking
system.cpu0.iew.iewUnblockCycles                  130                       # Number of cycles IEW is unblocking
system.cpu0.iew.iewDispatchedInsts          100007541                       # Number of instructions dispatched to IQ
system.cpu0.iew.iewDispSquashedInsts              220                       # Number of squashed instructions skipped by dispatch
system.cpu0.iew.iewDispLoadInsts             39988658                       # Number of dispatched load instructions
system.cpu0.iew.iewDispStoreInsts            19997948                       # Number of dispatched store instructions
system.cpu0.iew.iewDispNonSpecInsts                49                       # Number of dispatched non-speculative instructions
system.cpu0.iew.iewIQFullEvents                    11                       # Number of times the IQ has become full, causing a stall
system.cpu0.iew.iewLSQFullEvents                    0                       # Number of times the LSQ has become full, causing a stall
system.cpu0.iew.memOrderViolationEvents            91                       # Number of memory order violations
system.cpu0.iew.predictedTakenIncorrect            99                       # Number of branches that were predicted taken incorrectly
system.cpu0.iew.predictedNotTakenIncorrect          275                       # Number of branches that were predicted not taken incorrectly
system.cpu0.iew.branchMispredicts                 374                       # Number of branch mispredicts detected at execute
system.cpu0.iew.iewExecutedInsts            100005286                       # Number of executed instructions
system.cpu0.iew.iewExecLoadInsts             39988221                       # Number of load instructions executed
system.cpu0.iew.iewExecSquashedInsts              436                       # Number of squashed instructions skipped in execute
system.cpu0.iew.exec_swp                            0                       # number of swp insts executed
system.cpu0.iew.exec_nop                           16                       # number of nop insts executed
system.cpu0.iew.exec_refs                    59985858                       # number of memory reference insts executed
system.cpu0.iew.exec_branches                20002130                       # Number of branches executed
system.cpu0.iew.exec_forward_branches            4907                       # Number of forward branches executed
system.cpu0.iew.exec_backward_branches       19994885                       # Number of backward branches executed
system.cpu0.iew.exec_taken_forward_branches         2339                       # Number of forward branches executed that is taken
system.cpu0.iew.exec_nottaken_forward_branches         2568                       # Number of forward branches executed that is not taken
system.cpu0.iew.exec_taken_backward_branches     19994677                       # Number of backward branches executed that is taken
system.cpu0.iew.exec_nottaken_backward_branches          208                       # Number of backward branches executed that is not taken
system.cpu0.iew.exec_stores                  19997637                       # Number of stores executed
system.cpu0.iew.exec_rate                    2.498390                       # Inst execution rate
system.cpu0.iew.wb_sent                     100005086                       # cumulative count of insts sent to commit
system.cpu0.iew.wb_count                    100005026                       # cumulative count of insts written-back
system.cpu0.iew.wb_producers                 59998818                       # num instructions producing a value
system.cpu0.iew.wb_consumers                 60009484                       # num instructions consuming a value
system.cpu0.iew.wb_penalized                        0                       # number of instrctions required to write to 'other' IQ
system.cpu0.iew.wb_rate                      2.498383                       # insts written-back per cycle
system.cpu0.iew.wb_fanout                    0.999822                       # average fanout of values written-back
system.cpu0.iew.wb_penalized_rate                   0                       # fraction of instructions written-back that wrote to 'other' IQ
system.cpu0.commit.commitSquashedInsts           4178                       # The number of squashed insts skipped by commit
system.cpu0.commit.commitNonSpecStalls             72                       # The number of times commit has been forced to stall to communicate backwards
system.cpu0.commit.branchMispredicts              356                       # The number of times a branch was mispredicted
system.cpu0.commit.committed_per_cycle::samples     40019861                       # Number of insts commited each cycle
system.cpu0.commit.committed_per_cycle::mean     2.498843                       # Number of insts commited each cycle
system.cpu0.commit.committed_per_cycle::stdev     1.580499                       # Number of insts commited each cycle
system.cpu0.commit.committed_per_cycle::underflows            0      0.00%      0.00% # Number of insts commited each cycle
system.cpu0.commit.committed_per_cycle::0        15780      0.04%      0.04% # Number of insts commited each cycle
system.cpu0.commit.committed_per_cycle::1     20000442     49.98%     50.02% # Number of insts commited each cycle
system.cpu0.commit.committed_per_cycle::2         3307      0.01%     50.02% # Number of insts commited each cycle
system.cpu0.commit.committed_per_cycle::3      4942887     12.35%     62.38% # Number of insts commited each cycle
system.cpu0.commit.committed_per_cycle::4     10120168     25.29%     87.66% # Number of insts commited each cycle
system.cpu0.commit.committed_per_cycle::5      4936999     12.34%    100.00% # Number of insts commited each cycle
system.cpu0.commit.committed_per_cycle::6           76      0.00%    100.00% # Number of insts commited each cycle
system.cpu0.commit.committed_per_cycle::7          113      0.00%    100.00% # Number of insts commited each cycle
system.cpu0.commit.committed_per_cycle::8           89      0.00%    100.00% # Number of insts commited each cycle
system.cpu0.commit.committed_per_cycle::overflows            0      0.00%    100.00% # Number of insts commited each cycle
system.cpu0.commit.committed_per_cycle::min_value            0                       # Number of insts commited each cycle
system.cpu0.commit.committed_per_cycle::max_value            8                       # Number of insts commited each cycle
system.cpu0.commit.committed_per_cycle::total     40019861                       # Number of insts commited each cycle
system.cpu0.commit.committedInsts           100000000                       # Number of instructions committed
system.cpu0.commit.committedOps             100003343                       # Number of ops (including micro ops) committed
system.cpu0.commit.swp_count                        0                       # Number of s/w prefetches committed
system.cpu0.commit.refs                      59985046                       # Number of memory references committed
system.cpu0.commit.loads                     39987525                       # Number of loads committed
system.cpu0.commit.membars                         28                       # Number of memory barriers committed
system.cpu0.commit.branches                  20001834                       # Number of branches committed
system.cpu0.commit.fp_insts                        16                       # Number of committed floating point instructions.
system.cpu0.commit.int_insts                 80005978                       # Number of committed integer instructions.
system.cpu0.commit.function_calls                2192                       # Number of function calls committed.
system.cpu0.commit.op_class_0::No_OpClass            0      0.00%      0.00% # Class of committed instruction
system.cpu0.commit.op_class_0::IntAlu        40018288     40.02%     40.02% # Class of committed instruction
system.cpu0.commit.op_class_0::IntMult              6      0.00%     40.02% # Class of committed instruction
system.cpu0.commit.op_class_0::IntDiv               0      0.00%     40.02% # Class of committed instruction
system.cpu0.commit.op_class_0::FloatAdd             0      0.00%     40.02% # Class of committed instruction
system.cpu0.commit.op_class_0::FloatCmp             0      0.00%     40.02% # Class of committed instruction
system.cpu0.commit.op_class_0::FloatCvt             0      0.00%     40.02% # Class of committed instruction
system.cpu0.commit.op_class_0::FloatMult            0      0.00%     40.02% # Class of committed instruction
system.cpu0.commit.op_class_0::FloatDiv             0      0.00%     40.02% # Class of committed instruction
system.cpu0.commit.op_class_0::FloatSqrt            0      0.00%     40.02% # Class of committed instruction
system.cpu0.commit.op_class_0::SimdAdd              0      0.00%     40.02% # Class of committed instruction
system.cpu0.commit.op_class_0::SimdAddAcc            0      0.00%     40.02% # Class of committed instruction
system.cpu0.commit.op_class_0::SimdAlu              0      0.00%     40.02% # Class of committed instruction
system.cpu0.commit.op_class_0::SimdCmp              0      0.00%     40.02% # Class of committed instruction
system.cpu0.commit.op_class_0::SimdCvt              0      0.00%     40.02% # Class of committed instruction
system.cpu0.commit.op_class_0::SimdMisc             0      0.00%     40.02% # Class of committed instruction
system.cpu0.commit.op_class_0::SimdMult             0      0.00%     40.02% # Class of committed instruction
system.cpu0.commit.op_class_0::SimdMultAcc            0      0.00%     40.02% # Class of committed instruction
system.cpu0.commit.op_class_0::SimdShift            0      0.00%     40.02% # Class of committed instruction
system.cpu0.commit.op_class_0::SimdShiftAcc            0      0.00%     40.02% # Class of committed instruction
system.cpu0.commit.op_class_0::SimdSqrt             0      0.00%     40.02% # Class of committed instruction
system.cpu0.commit.op_class_0::SimdFloatAdd            0      0.00%     40.02% # Class of committed instruction
system.cpu0.commit.op_class_0::SimdFloatAlu            0      0.00%     40.02% # Class of committed instruction
system.cpu0.commit.op_class_0::SimdFloatCmp            0      0.00%     40.02% # Class of committed instruction
system.cpu0.commit.op_class_0::SimdFloatCvt            0      0.00%     40.02% # Class of committed instruction
system.cpu0.commit.op_class_0::SimdFloatDiv            0      0.00%     40.02% # Class of committed instruction
system.cpu0.commit.op_class_0::SimdFloatMisc            3      0.00%     40.02% # Class of committed instruction
system.cpu0.commit.op_class_0::SimdFloatMult            0      0.00%     40.02% # Class of committed instruction
system.cpu0.commit.op_class_0::SimdFloatMultAcc            0      0.00%     40.02% # Class of committed instruction
system.cpu0.commit.op_class_0::SimdFloatSqrt            0      0.00%     40.02% # Class of committed instruction
system.cpu0.commit.op_class_0::MemRead       39987525     39.99%     80.00% # Class of committed instruction
system.cpu0.commit.op_class_0::MemWrite      19997521     20.00%    100.00% # Class of committed instruction
system.cpu0.commit.op_class_0::IprAccess            0      0.00%    100.00% # Class of committed instruction
system.cpu0.commit.op_class_0::InstPrefetch            0      0.00%    100.00% # Class of committed instruction
system.cpu0.commit.op_class_0::total        100003343                       # Class of committed instruction
system.cpu0.commit.bw_lim_events                   89                       # number cycles where commit BW limit reached
system.cpu0.rob.rob_reads                   140027084                       # The number of ROB reads
system.cpu0.rob.rob_writes                  200015835                       # The number of ROB writes
system.cpu0.timesIdled                            231                       # Number of times that the entire CPU went into an idle state and unscheduled itself
system.cpu0.idleCycles                           7265                       # Total number of cycles that the CPU has spent unscheduled due to idling
system.cpu0.committedInsts                  100000000                       # Number of Instructions Simulated
system.cpu0.committedOps                    100003343                       # Number of Ops (including micro ops) Simulated
system.cpu0.cpi                              0.400279                       # CPI: Cycles Per Instruction
system.cpu0.cpi_total                        0.400279                       # CPI: Total CPI of All Threads
system.cpu0.ipc                              2.498258                       # IPC: Instructions Per Cycle
system.cpu0.ipc_total                        2.498258                       # IPC: Total IPC of All Threads
system.cpu0.int_regfile_reads               100003870                       # number of integer regfile reads
system.cpu0.int_regfile_writes               40010482                       # number of integer regfile writes
system.cpu0.fp_regfile_reads                      656                       # number of floating regfile reads
system.cpu0.cc_regfile_reads                419979705                       # number of cc regfile reads
system.cpu0.cc_regfile_writes                59995602                       # number of cc regfile writes
system.cpu0.misc_regfile_reads               61818308                       # number of misc regfile reads
system.cpu0.misc_regfile_writes                    56                       # number of misc regfile writes
system.cpu0.dcache.tags.replacements              595                       # number of replacements
system.cpu0.dcache.tags.tagsinuse           71.205764                       # Cycle average of tags in use
system.cpu0.dcache.tags.total_refs           39987553                       # Total number of references to valid blocks.
system.cpu0.dcache.tags.sampled_refs              653                       # Sample count of references to valid blocks.
system.cpu0.dcache.tags.avg_refs         61236.681470                       # Average number of references to valid blocks.
system.cpu0.dcache.tags.warmup_cycle         25970000                       # Cycle when the warmup percentage was hit.
system.cpu0.dcache.tags.occ_blocks::cpu0.data    71.205764                       # Average occupied blocks per requestor
system.cpu0.dcache.tags.occ_percent::cpu0.data     0.139074                       # Average percentage of cache occupancy
system.cpu0.dcache.tags.occ_percent::total     0.139074                       # Average percentage of cache occupancy
system.cpu0.dcache.tags.occ_task_id_blocks::1024           58                       # Occupied blocks per task id
system.cpu0.dcache.tags.age_task_id_blocks_1024::4           58                       # Occupied blocks per task id
system.cpu0.dcache.tags.occ_task_id_percent::1024     0.113281                       # Percentage of cache occupancy per task id
system.cpu0.dcache.tags.tag_accesses         79988073                       # Number of tag accesses
system.cpu0.dcache.tags.data_accesses        79988073                       # Number of data accesses
system.cpu0.dcache.ReadReq_hits::cpu0.data     19995764                       # number of ReadReq hits
system.cpu0.dcache.ReadReq_hits::total       19995764                       # number of ReadReq hits
system.cpu0.dcache.WriteReq_hits::cpu0.data     19992996                       # number of WriteReq hits
system.cpu0.dcache.WriteReq_hits::total      19992996                       # number of WriteReq hits
system.cpu0.dcache.LoadLockedReq_hits::cpu0.data           23                       # number of LoadLockedReq hits
system.cpu0.dcache.LoadLockedReq_hits::total           23                       # number of LoadLockedReq hits
system.cpu0.dcache.StoreCondReq_hits::cpu0.data           27                       # number of StoreCondReq hits
system.cpu0.dcache.StoreCondReq_hits::total           27                       # number of StoreCondReq hits
system.cpu0.dcache.demand_hits::cpu0.data     39988760                       # number of demand (read+write) hits
system.cpu0.dcache.demand_hits::total        39988760                       # number of demand (read+write) hits
system.cpu0.dcache.overall_hits::cpu0.data     39988760                       # number of overall hits
system.cpu0.dcache.overall_hits::total       39988760                       # number of overall hits
system.cpu0.dcache.ReadReq_misses::cpu0.data          214                       # number of ReadReq misses
system.cpu0.dcache.ReadReq_misses::total          214                       # number of ReadReq misses
system.cpu0.dcache.WriteReq_misses::cpu0.data         4453                       # number of WriteReq misses
system.cpu0.dcache.WriteReq_misses::total         4453                       # number of WriteReq misses
system.cpu0.dcache.LoadLockedReq_misses::cpu0.data            5                       # number of LoadLockedReq misses
system.cpu0.dcache.LoadLockedReq_misses::total            5                       # number of LoadLockedReq misses
system.cpu0.dcache.demand_misses::cpu0.data         4667                       # number of demand (read+write) misses
system.cpu0.dcache.demand_misses::total          4667                       # number of demand (read+write) misses
system.cpu0.dcache.overall_misses::cpu0.data         4667                       # number of overall misses
system.cpu0.dcache.overall_misses::total         4667                       # number of overall misses
system.cpu0.dcache.ReadReq_miss_latency::cpu0.data      8881487                       # number of ReadReq miss cycles
system.cpu0.dcache.ReadReq_miss_latency::total      8881487                       # number of ReadReq miss cycles
system.cpu0.dcache.WriteReq_miss_latency::cpu0.data    225798499                       # number of WriteReq miss cycles
system.cpu0.dcache.WriteReq_miss_latency::total    225798499                       # number of WriteReq miss cycles
system.cpu0.dcache.LoadLockedReq_miss_latency::cpu0.data       171500                       # number of LoadLockedReq miss cycles
system.cpu0.dcache.LoadLockedReq_miss_latency::total       171500                       # number of LoadLockedReq miss cycles
system.cpu0.dcache.demand_miss_latency::cpu0.data    234679986                       # number of demand (read+write) miss cycles
system.cpu0.dcache.demand_miss_latency::total    234679986                       # number of demand (read+write) miss cycles
system.cpu0.dcache.overall_miss_latency::cpu0.data    234679986                       # number of overall miss cycles
system.cpu0.dcache.overall_miss_latency::total    234679986                       # number of overall miss cycles
system.cpu0.dcache.ReadReq_accesses::cpu0.data     19995978                       # number of ReadReq accesses(hits+misses)
system.cpu0.dcache.ReadReq_accesses::total     19995978                       # number of ReadReq accesses(hits+misses)
system.cpu0.dcache.WriteReq_accesses::cpu0.data     19997449                       # number of WriteReq accesses(hits+misses)
system.cpu0.dcache.WriteReq_accesses::total     19997449                       # number of WriteReq accesses(hits+misses)
system.cpu0.dcache.LoadLockedReq_accesses::cpu0.data           28                       # number of LoadLockedReq accesses(hits+misses)
system.cpu0.dcache.LoadLockedReq_accesses::total           28                       # number of LoadLockedReq accesses(hits+misses)
system.cpu0.dcache.StoreCondReq_accesses::cpu0.data           27                       # number of StoreCondReq accesses(hits+misses)
system.cpu0.dcache.StoreCondReq_accesses::total           27                       # number of StoreCondReq accesses(hits+misses)
system.cpu0.dcache.demand_accesses::cpu0.data     39993427                       # number of demand (read+write) accesses
system.cpu0.dcache.demand_accesses::total     39993427                       # number of demand (read+write) accesses
system.cpu0.dcache.overall_accesses::cpu0.data     39993427                       # number of overall (read+write) accesses
system.cpu0.dcache.overall_accesses::total     39993427                       # number of overall (read+write) accesses
system.cpu0.dcache.ReadReq_miss_rate::cpu0.data     0.000011                       # miss rate for ReadReq accesses
system.cpu0.dcache.ReadReq_miss_rate::total     0.000011                       # miss rate for ReadReq accesses
system.cpu0.dcache.WriteReq_miss_rate::cpu0.data     0.000223                       # miss rate for WriteReq accesses
system.cpu0.dcache.WriteReq_miss_rate::total     0.000223                       # miss rate for WriteReq accesses
system.cpu0.dcache.LoadLockedReq_miss_rate::cpu0.data     0.178571                       # miss rate for LoadLockedReq accesses
system.cpu0.dcache.LoadLockedReq_miss_rate::total     0.178571                       # miss rate for LoadLockedReq accesses
system.cpu0.dcache.demand_miss_rate::cpu0.data     0.000117                       # miss rate for demand accesses
system.cpu0.dcache.demand_miss_rate::total     0.000117                       # miss rate for demand accesses
system.cpu0.dcache.overall_miss_rate::cpu0.data     0.000117                       # miss rate for overall accesses
system.cpu0.dcache.overall_miss_rate::total     0.000117                       # miss rate for overall accesses
system.cpu0.dcache.ReadReq_avg_miss_latency::cpu0.data 41502.275701                       # average ReadReq miss latency
system.cpu0.dcache.ReadReq_avg_miss_latency::total 41502.275701                       # average ReadReq miss latency
system.cpu0.dcache.WriteReq_avg_miss_latency::cpu0.data 50707.051201                       # average WriteReq miss latency
system.cpu0.dcache.WriteReq_avg_miss_latency::total 50707.051201                       # average WriteReq miss latency
system.cpu0.dcache.LoadLockedReq_avg_miss_latency::cpu0.data        34300                       # average LoadLockedReq miss latency
system.cpu0.dcache.LoadLockedReq_avg_miss_latency::total        34300                       # average LoadLockedReq miss latency
system.cpu0.dcache.demand_avg_miss_latency::cpu0.data 50284.976645                       # average overall miss latency
system.cpu0.dcache.demand_avg_miss_latency::total 50284.976645                       # average overall miss latency
system.cpu0.dcache.overall_avg_miss_latency::cpu0.data 50284.976645                       # average overall miss latency
system.cpu0.dcache.overall_avg_miss_latency::total 50284.976645                       # average overall miss latency
system.cpu0.dcache.blocked_cycles::no_mshrs           72                       # number of cycles access was blocked
system.cpu0.dcache.blocked_cycles::no_targets            0                       # number of cycles access was blocked
system.cpu0.dcache.blocked::no_mshrs                7                       # number of cycles access was blocked
system.cpu0.dcache.blocked::no_targets              0                       # number of cycles access was blocked
system.cpu0.dcache.avg_blocked_cycles::no_mshrs    10.285714                       # average number of cycles each access was blocked
system.cpu0.dcache.avg_blocked_cycles::no_targets          nan                       # average number of cycles each access was blocked
system.cpu0.dcache.fast_writes                      0                       # number of fast writes performed
system.cpu0.dcache.cache_copies                     0                       # number of cache copies performed
system.cpu0.dcache.writebacks::writebacks          518                       # number of writebacks
system.cpu0.dcache.writebacks::total              518                       # number of writebacks
system.cpu0.dcache.ReadReq_mshr_hits::cpu0.data           66                       # number of ReadReq MSHR hits
system.cpu0.dcache.ReadReq_mshr_hits::total           66                       # number of ReadReq MSHR hits
system.cpu0.dcache.WriteReq_mshr_hits::cpu0.data         3492                       # number of WriteReq MSHR hits
system.cpu0.dcache.WriteReq_mshr_hits::total         3492                       # number of WriteReq MSHR hits
system.cpu0.dcache.LoadLockedReq_mshr_hits::cpu0.data            5                       # number of LoadLockedReq MSHR hits
system.cpu0.dcache.LoadLockedReq_mshr_hits::total            5                       # number of LoadLockedReq MSHR hits
system.cpu0.dcache.demand_mshr_hits::cpu0.data         3558                       # number of demand (read+write) MSHR hits
system.cpu0.dcache.demand_mshr_hits::total         3558                       # number of demand (read+write) MSHR hits
system.cpu0.dcache.overall_mshr_hits::cpu0.data         3558                       # number of overall MSHR hits
system.cpu0.dcache.overall_mshr_hits::total         3558                       # number of overall MSHR hits
system.cpu0.dcache.ReadReq_mshr_misses::cpu0.data          148                       # number of ReadReq MSHR misses
system.cpu0.dcache.ReadReq_mshr_misses::total          148                       # number of ReadReq MSHR misses
system.cpu0.dcache.WriteReq_mshr_misses::cpu0.data          961                       # number of WriteReq MSHR misses
system.cpu0.dcache.WriteReq_mshr_misses::total          961                       # number of WriteReq MSHR misses
system.cpu0.dcache.demand_mshr_misses::cpu0.data         1109                       # number of demand (read+write) MSHR misses
system.cpu0.dcache.demand_mshr_misses::total         1109                       # number of demand (read+write) MSHR misses
system.cpu0.dcache.overall_mshr_misses::cpu0.data         1109                       # number of overall MSHR misses
system.cpu0.dcache.overall_mshr_misses::total         1109                       # number of overall MSHR misses
system.cpu0.dcache.ReadReq_mshr_miss_latency::cpu0.data      6004009                       # number of ReadReq MSHR miss cycles
system.cpu0.dcache.ReadReq_mshr_miss_latency::total      6004009                       # number of ReadReq MSHR miss cycles
system.cpu0.dcache.WriteReq_mshr_miss_latency::cpu0.data     52620500                       # number of WriteReq MSHR miss cycles
system.cpu0.dcache.WriteReq_mshr_miss_latency::total     52620500                       # number of WriteReq MSHR miss cycles
system.cpu0.dcache.demand_mshr_miss_latency::cpu0.data     58624509                       # number of demand (read+write) MSHR miss cycles
system.cpu0.dcache.demand_mshr_miss_latency::total     58624509                       # number of demand (read+write) MSHR miss cycles
system.cpu0.dcache.overall_mshr_miss_latency::cpu0.data     58624509                       # number of overall MSHR miss cycles
system.cpu0.dcache.overall_mshr_miss_latency::total     58624509                       # number of overall MSHR miss cycles
system.cpu0.dcache.ReadReq_mshr_miss_rate::cpu0.data     0.000007                       # mshr miss rate for ReadReq accesses
system.cpu0.dcache.ReadReq_mshr_miss_rate::total     0.000007                       # mshr miss rate for ReadReq accesses
system.cpu0.dcache.WriteReq_mshr_miss_rate::cpu0.data     0.000048                       # mshr miss rate for WriteReq accesses
system.cpu0.dcache.WriteReq_mshr_miss_rate::total     0.000048                       # mshr miss rate for WriteReq accesses
system.cpu0.dcache.demand_mshr_miss_rate::cpu0.data     0.000028                       # mshr miss rate for demand accesses
system.cpu0.dcache.demand_mshr_miss_rate::total     0.000028                       # mshr miss rate for demand accesses
system.cpu0.dcache.overall_mshr_miss_rate::cpu0.data     0.000028                       # mshr miss rate for overall accesses
system.cpu0.dcache.overall_mshr_miss_rate::total     0.000028                       # mshr miss rate for overall accesses
system.cpu0.dcache.ReadReq_avg_mshr_miss_latency::cpu0.data 40567.628378                       # average ReadReq mshr miss latency
system.cpu0.dcache.ReadReq_avg_mshr_miss_latency::total 40567.628378                       # average ReadReq mshr miss latency
system.cpu0.dcache.WriteReq_avg_mshr_miss_latency::cpu0.data 54755.983351                       # average WriteReq mshr miss latency
system.cpu0.dcache.WriteReq_avg_mshr_miss_latency::total 54755.983351                       # average WriteReq mshr miss latency
system.cpu0.dcache.demand_avg_mshr_miss_latency::cpu0.data 52862.496844                       # average overall mshr miss latency
system.cpu0.dcache.demand_avg_mshr_miss_latency::total 52862.496844                       # average overall mshr miss latency
system.cpu0.dcache.overall_avg_mshr_miss_latency::cpu0.data 52862.496844                       # average overall mshr miss latency
system.cpu0.dcache.overall_avg_mshr_miss_latency::total 52862.496844                       # average overall mshr miss latency
system.cpu0.dcache.no_allocate_misses               0                       # Number of misses that were no-allocate
system.cpu0.icache.tags.replacements               59                       # number of replacements
system.cpu0.icache.tags.tagsinuse          292.875989                       # Cycle average of tags in use
system.cpu0.icache.tags.total_refs               6125                       # Total number of references to valid blocks.
system.cpu0.icache.tags.sampled_refs              352                       # Sample count of references to valid blocks.
system.cpu0.icache.tags.avg_refs            17.400568                       # Average number of references to valid blocks.
system.cpu0.icache.tags.warmup_cycle                0                       # Cycle when the warmup percentage was hit.
system.cpu0.icache.tags.occ_blocks::cpu0.inst   292.875989                       # Average occupied blocks per requestor
system.cpu0.icache.tags.occ_percent::cpu0.inst     0.572023                       # Average percentage of cache occupancy
system.cpu0.icache.tags.occ_percent::total     0.572023                       # Average percentage of cache occupancy
system.cpu0.icache.tags.occ_task_id_blocks::1024          293                       # Occupied blocks per task id
system.cpu0.icache.tags.age_task_id_blocks_1024::4          293                       # Occupied blocks per task id
system.cpu0.icache.tags.occ_task_id_percent::1024     0.572266                       # Percentage of cache occupancy per task id
system.cpu0.icache.tags.tag_accesses            13428                       # Number of tag accesses
system.cpu0.icache.tags.data_accesses           13428                       # Number of data accesses
system.cpu0.icache.ReadReq_hits::cpu0.inst         6125                       # number of ReadReq hits
system.cpu0.icache.ReadReq_hits::total           6125                       # number of ReadReq hits
system.cpu0.icache.demand_hits::cpu0.inst         6125                       # number of demand (read+write) hits
system.cpu0.icache.demand_hits::total            6125                       # number of demand (read+write) hits
system.cpu0.icache.overall_hits::cpu0.inst         6125                       # number of overall hits
system.cpu0.icache.overall_hits::total           6125                       # number of overall hits
system.cpu0.icache.ReadReq_misses::cpu0.inst          413                       # number of ReadReq misses
system.cpu0.icache.ReadReq_misses::total          413                       # number of ReadReq misses
system.cpu0.icache.demand_misses::cpu0.inst          413                       # number of demand (read+write) misses
system.cpu0.icache.demand_misses::total           413                       # number of demand (read+write) misses
system.cpu0.icache.overall_misses::cpu0.inst          413                       # number of overall misses
system.cpu0.icache.overall_misses::total          413                       # number of overall misses
system.cpu0.icache.ReadReq_miss_latency::cpu0.inst     21551999                       # number of ReadReq miss cycles
system.cpu0.icache.ReadReq_miss_latency::total     21551999                       # number of ReadReq miss cycles
system.cpu0.icache.demand_miss_latency::cpu0.inst     21551999                       # number of demand (read+write) miss cycles
system.cpu0.icache.demand_miss_latency::total     21551999                       # number of demand (read+write) miss cycles
system.cpu0.icache.overall_miss_latency::cpu0.inst     21551999                       # number of overall miss cycles
system.cpu0.icache.overall_miss_latency::total     21551999                       # number of overall miss cycles
system.cpu0.icache.ReadReq_accesses::cpu0.inst         6538                       # number of ReadReq accesses(hits+misses)
system.cpu0.icache.ReadReq_accesses::total         6538                       # number of ReadReq accesses(hits+misses)
system.cpu0.icache.demand_accesses::cpu0.inst         6538                       # number of demand (read+write) accesses
system.cpu0.icache.demand_accesses::total         6538                       # number of demand (read+write) accesses
system.cpu0.icache.overall_accesses::cpu0.inst         6538                       # number of overall (read+write) accesses
system.cpu0.icache.overall_accesses::total         6538                       # number of overall (read+write) accesses
system.cpu0.icache.ReadReq_miss_rate::cpu0.inst     0.063169                       # miss rate for ReadReq accesses
system.cpu0.icache.ReadReq_miss_rate::total     0.063169                       # miss rate for ReadReq accesses
system.cpu0.icache.demand_miss_rate::cpu0.inst     0.063169                       # miss rate for demand accesses
system.cpu0.icache.demand_miss_rate::total     0.063169                       # miss rate for demand accesses
system.cpu0.icache.overall_miss_rate::cpu0.inst     0.063169                       # miss rate for overall accesses
system.cpu0.icache.overall_miss_rate::total     0.063169                       # miss rate for overall accesses
system.cpu0.icache.ReadReq_avg_miss_latency::cpu0.inst 52184.016949                       # average ReadReq miss latency
system.cpu0.icache.ReadReq_avg_miss_latency::total 52184.016949                       # average ReadReq miss latency
system.cpu0.icache.demand_avg_miss_latency::cpu0.inst 52184.016949                       # average overall miss latency
system.cpu0.icache.demand_avg_miss_latency::total 52184.016949                       # average overall miss latency
system.cpu0.icache.overall_avg_miss_latency::cpu0.inst 52184.016949                       # average overall miss latency
system.cpu0.icache.overall_avg_miss_latency::total 52184.016949                       # average overall miss latency
system.cpu0.icache.blocked_cycles::no_mshrs           18                       # number of cycles access was blocked
system.cpu0.icache.blocked_cycles::no_targets            0                       # number of cycles access was blocked
system.cpu0.icache.blocked::no_mshrs                2                       # number of cycles access was blocked
system.cpu0.icache.blocked::no_targets              0                       # number of cycles access was blocked
system.cpu0.icache.avg_blocked_cycles::no_mshrs            9                       # average number of cycles each access was blocked
system.cpu0.icache.avg_blocked_cycles::no_targets          nan                       # average number of cycles each access was blocked
system.cpu0.icache.fast_writes                      0                       # number of fast writes performed
system.cpu0.icache.cache_copies                     0                       # number of cache copies performed
[...]
system.l2.demand_mshr_miss_rate::cpu4.inst     0.044626                       # mshr miss rate for demand accesses
system.l2.demand_mshr_miss_rate::cpu4.data     0.497360                       # mshr miss rate for demand accesses
system.l2.demand_mshr_miss_rate::total       0.490986                       # mshr miss rate for demand accesses
system.l2.overall_mshr_miss_rate::cpu0.inst     0.926136                       # mshr miss rate for overall accesses
system.l2.overall_mshr_miss_rate::cpu0.data     0.937782                       # mshr miss rate for overall accesses
system.l2.overall_mshr_miss_rate::cpu1.inst     0.013977                       # mshr miss rate for overall accesses
system.l2.overall_mshr_miss_rate::cpu1.data     0.488275                       # mshr miss rate for overall accesses
system.l2.overall_mshr_miss_rate::cpu2.inst     0.048367                       # mshr miss rate for overall accesses
system.l2.overall_mshr_miss_rate::cpu2.data     0.512423                       # mshr miss rate for overall accesses
system.l2.overall_mshr_miss_rate::cpu3.inst     0.042827                       # mshr miss rate for overall accesses
system.l2.overall_mshr_miss_rate::cpu3.data     0.516283                       # mshr miss rate for overall accesses
system.l2.overall_mshr_miss_rate::cpu4.inst     0.044626                       # mshr miss rate for overall accesses
system.l2.overall_mshr_miss_rate::cpu4.data     0.497360                       # mshr miss rate for overall accesses
system.l2.overall_mshr_miss_rate::total      0.490986                       # mshr miss rate for overall accesses
system.l2.ReadReq_avg_mshr_miss_latency::cpu0.inst 41085.889571                       # average ReadReq mshr miss latency
system.l2.ReadReq_avg_mshr_miss_latency::cpu0.data 42360.465116                       # average ReadReq mshr miss latency
system.l2.ReadReq_avg_mshr_miss_latency::cpu1.inst 40787.878788                       # average ReadReq mshr miss latency
system.l2.ReadReq_avg_mshr_miss_latency::cpu1.data 40520.945684                       # average ReadReq mshr miss latency
system.l2.ReadReq_avg_mshr_miss_latency::cpu2.inst 40978.632479                       # average ReadReq mshr miss latency
system.l2.ReadReq_avg_mshr_miss_latency::cpu2.data 40521.984033                       # average ReadReq mshr miss latency
system.l2.ReadReq_avg_mshr_miss_latency::cpu3.inst 40985.436893                       # average ReadReq mshr miss latency
system.l2.ReadReq_avg_mshr_miss_latency::cpu3.data 40519.577745                       # average ReadReq mshr miss latency
system.l2.ReadReq_avg_mshr_miss_latency::cpu4.inst 40752.688172                       # average ReadReq mshr miss latency
system.l2.ReadReq_avg_mshr_miss_latency::cpu4.data 40521.040293                       # average ReadReq mshr miss latency
system.l2.ReadReq_avg_mshr_miss_latency::total 40524.257532                       # average ReadReq mshr miss latency
system.l2.UpgradeReq_avg_mshr_miss_latency::cpu1.data 40686.710264                       # average UpgradeReq mshr miss latency
system.l2.UpgradeReq_avg_mshr_miss_latency::cpu2.data 40685.075880                       # average UpgradeReq mshr miss latency
system.l2.UpgradeReq_avg_mshr_miss_latency::cpu3.data 40690.404241                       # average UpgradeReq mshr miss latency
system.l2.UpgradeReq_avg_mshr_miss_latency::cpu4.data 40722.742333                       # average UpgradeReq mshr miss latency
system.l2.UpgradeReq_avg_mshr_miss_latency::total 40696.452340                       # average UpgradeReq mshr miss latency
system.l2.SCUpgradeReq_avg_mshr_miss_latency::cpu1.data 40555.762825                       # average SCUpgradeReq mshr miss latency
system.l2.SCUpgradeReq_avg_mshr_miss_latency::cpu2.data 40554.382040                       # average SCUpgradeReq mshr miss latency
system.l2.SCUpgradeReq_avg_mshr_miss_latency::cpu3.data 40552.990857                       # average SCUpgradeReq mshr miss latency
system.l2.SCUpgradeReq_avg_mshr_miss_latency::cpu4.data 40549.916416                       # average SCUpgradeReq mshr miss latency
system.l2.SCUpgradeReq_avg_mshr_miss_latency::total 40553.256967                       # average SCUpgradeReq mshr miss latency
system.l2.ReadExReq_avg_mshr_miss_latency::cpu0.data 40571.278826                       # average ReadExReq mshr miss latency
system.l2.ReadExReq_avg_mshr_miss_latency::cpu1.data 40945.774648                       # average ReadExReq mshr miss latency
system.l2.ReadExReq_avg_mshr_miss_latency::cpu2.data 40863.259669                       # average ReadExReq mshr miss latency
system.l2.ReadExReq_avg_mshr_miss_latency::cpu3.data 40630.013831                       # average ReadExReq mshr miss latency
system.l2.ReadExReq_avg_mshr_miss_latency::cpu4.data 40724.066390                       # average ReadExReq mshr miss latency
system.l2.ReadExReq_avg_mshr_miss_latency::total 40735.654669                       # average ReadExReq mshr miss latency
system.l2.demand_avg_mshr_miss_latency::cpu0.inst 41085.889571                       # average overall mshr miss latency
system.l2.demand_avg_mshr_miss_latency::cpu0.data 40719.230769                       # average overall mshr miss latency
system.l2.demand_avg_mshr_miss_latency::cpu1.inst 40787.878788                       # average overall mshr miss latency
system.l2.demand_avg_mshr_miss_latency::cpu1.data 40529.746448                       # average overall mshr miss latency
system.l2.demand_avg_mshr_miss_latency::cpu2.inst 40978.632479                       # average overall mshr miss latency
system.l2.demand_avg_mshr_miss_latency::cpu2.data 40529.136753                       # average overall mshr miss latency
system.l2.demand_avg_mshr_miss_latency::cpu3.inst 40985.436893                       # average overall mshr miss latency
system.l2.demand_avg_mshr_miss_latency::cpu3.data 40521.686874                       # average overall mshr miss latency
system.l2.demand_avg_mshr_miss_latency::cpu4.inst 40752.688172                       # average overall mshr miss latency
system.l2.demand_avg_mshr_miss_latency::cpu4.data 40525.252525                       # average overall mshr miss latency
system.l2.demand_avg_mshr_miss_latency::total 40529.916081                       # average overall mshr miss latency
system.l2.overall_avg_mshr_miss_latency::cpu0.inst 41085.889571                       # average overall mshr miss latency
system.l2.overall_avg_mshr_miss_latency::cpu0.data 40719.230769                       # average overall mshr miss latency
system.l2.overall_avg_mshr_miss_latency::cpu1.inst 40787.878788                       # average overall mshr miss latency
system.l2.overall_avg_mshr_miss_latency::cpu1.data 40529.746448                       # average overall mshr miss latency
system.l2.overall_avg_mshr_miss_latency::cpu2.inst 40978.632479                       # average overall mshr miss latency
system.l2.overall_avg_mshr_miss_latency::cpu2.data 40529.136753                       # average overall mshr miss latency
system.l2.overall_avg_mshr_miss_latency::cpu3.inst 40985.436893                       # average overall mshr miss latency
system.l2.overall_avg_mshr_miss_latency::cpu3.data 40521.686874                       # average overall mshr miss latency
system.l2.overall_avg_mshr_miss_latency::cpu4.inst 40752.688172                       # average overall mshr miss latency
system.l2.overall_avg_mshr_miss_latency::cpu4.data 40525.252525                       # average overall mshr miss latency
system.l2.overall_avg_mshr_miss_latency::total 40529.916081                       # average overall mshr miss latency
system.l2.no_allocate_misses                        0                       # Number of misses that were no-allocate
system.membus.trans_dist::ReadReq              139400                       # Transaction distribution
system.membus.trans_dist::ReadResp             139400                       # Transaction distribution
system.membus.trans_dist::Writeback              2772                       # Transaction distribution
system.membus.trans_dist::UpgradeReq           299223                       # Transaction distribution
system.membus.trans_dist::SCUpgradeReq         408389                       # Transaction distribution
system.membus.trans_dist::UpgradeResp          357943                       # Transaction distribution
system.membus.trans_dist::SCUpgradeFailReq           17                       # Transaction distribution
system.membus.trans_dist::ReadExReq              7007                       # Transaction distribution
system.membus.trans_dist::ReadExResp             3834                       # Transaction distribution
system.membus.pkt_count_system.l2.mem_side::system.physmem.port      1357985                       # Packet count per connected master and slave (bytes)
system.membus.pkt_count::total                1357985                       # Packet count per connected master and slave (bytes)
system.membus.pkt_size_system.l2.mem_side::system.physmem.port      9344384                       # Cumulative packet size per connected master and slave (bytes)
system.membus.pkt_size::total                 9344384                       # Cumulative packet size per connected master and slave (bytes)
system.membus.snoops                           352859                       # Total snoops (count)
system.membus.snoop_fanout::samples            863704                       # Request fanout histogram
system.membus.snoop_fanout::mean                    0                       # Request fanout histogram
system.membus.snoop_fanout::stdev                   0                       # Request fanout histogram
system.membus.snoop_fanout::underflows              0      0.00%      0.00% # Request fanout histogram
system.membus.snoop_fanout::0                  863704    100.00%    100.00% # Request fanout histogram
system.membus.snoop_fanout::1                       0      0.00%    100.00% # Request fanout histogram
system.membus.snoop_fanout::overflows               0      0.00%    100.00% # Request fanout histogram
system.membus.snoop_fanout::min_value               0                       # Request fanout histogram
system.membus.snoop_fanout::max_value               0                       # Request fanout histogram
system.membus.snoop_fanout::total              863704                       # Request fanout histogram
system.membus.reqLayer0.occupancy           759239761                       # Layer occupancy (ticks)
system.membus.reqLayer0.utilization               1.9                       # Layer utilization (%)
system.membus.respLayer1.occupancy         1302861798                       # Layer occupancy (ticks)
system.membus.respLayer1.utilization              3.3                       # Layer utilization (%)
system.tol2bus.trans_dist::ReadReq            1661896                       # Transaction distribution
system.tol2bus.trans_dist::ReadResp           1661443                       # Transaction distribution
system.tol2bus.trans_dist::ReadRespWithInvalidate          450                       # Transaction distribution
system.tol2bus.trans_dist::Writeback            41459                       # Transaction distribution
system.tol2bus.trans_dist::UpgradeReq          299375                       # Transaction distribution
system.tol2bus.trans_dist::SCUpgradeReq        408408                       # Transaction distribution
system.tol2bus.trans_dist::UpgradeResp         707783                       # Transaction distribution
system.tol2bus.trans_dist::SCUpgradeFailReq        37198                       # Transaction distribution
system.tol2bus.trans_dist::UpgradeFailResp        37198                       # Transaction distribution
system.tol2bus.trans_dist::ReadExReq           172091                       # Transaction distribution
system.tol2bus.trans_dist::ReadExResp          172091                       # Transaction distribution
system.tol2bus.pkt_count_system.cpu0.icache.mem_side::system.l2.cpu_side          704                       # Packet count per connected master and slave (bytes)
system.tol2bus.pkt_count_system.cpu0.dcache.mem_side::system.l2.cpu_side         2736                       # Packet count per connected master and slave (bytes)
system.tol2bus.pkt_count_system.cpu1.icache.mem_side::system.l2.cpu_side         4722                       # Packet count per connected master and slave (bytes)
system.tol2bus.pkt_count_system.cpu1.dcache.mem_side::system.l2.cpu_side       815038                       # Packet count per connected master and slave (bytes)
system.tol2bus.pkt_count_system.cpu2.icache.mem_side::system.l2.cpu_side         4838                       # Packet count per connected master and slave (bytes)
system.tol2bus.pkt_count_system.cpu2.dcache.mem_side::system.l2.cpu_side       807661                       # Packet count per connected master and slave (bytes)
system.tol2bus.pkt_count_system.cpu3.icache.mem_side::system.l2.cpu_side         4810                       # Packet count per connected master and slave (bytes)
system.tol2bus.pkt_count_system.cpu3.dcache.mem_side::system.l2.cpu_side       828189                       # Packet count per connected master and slave (bytes)
system.tol2bus.pkt_count_system.cpu4.icache.mem_side::system.l2.cpu_side         4168                       # Packet count per connected master and slave (bytes)
system.tol2bus.pkt_count_system.cpu4.dcache.mem_side::system.l2.cpu_side       797402                       # Packet count per connected master and slave (bytes)
system.tol2bus.pkt_count::total               3270268                       # Packet count per connected master and slave (bytes)
system.tol2bus.pkt_size_system.cpu0.icache.mem_side::system.l2.cpu_side        22528                       # Cumulative packet size per connected master and slave (bytes)
system.tol2bus.pkt_size_system.cpu0.dcache.mem_side::system.l2.cpu_side       104128                       # Cumulative packet size per connected master and slave (bytes)
system.tol2bus.pkt_size_system.cpu1.icache.mem_side::system.l2.cpu_side       151104                       # Cumulative packet size per connected master and slave (bytes)
system.tol2bus.pkt_size_system.cpu1.dcache.mem_side::system.l2.cpu_side      5163328                       # Cumulative packet size per connected master and slave (bytes)
system.tol2bus.pkt_size_system.cpu2.icache.mem_side::system.l2.cpu_side       154816                       # Cumulative packet size per connected master and slave (bytes)
system.tol2bus.pkt_size_system.cpu2.dcache.mem_side::system.l2.cpu_side      4923456                       # Cumulative packet size per connected master and slave (bytes)
system.tol2bus.pkt_size_system.cpu3.icache.mem_side::system.l2.cpu_side       153920                       # Cumulative packet size per connected master and slave (bytes)
system.tol2bus.pkt_size_system.cpu3.dcache.mem_side::system.l2.cpu_side      5410688                       # Cumulative packet size per connected master and slave (bytes)
system.tol2bus.pkt_size_system.cpu4.icache.mem_side::system.l2.cpu_side       133376                       # Cumulative packet size per connected master and slave (bytes)
system.tol2bus.pkt_size_system.cpu4.dcache.mem_side::system.l2.cpu_side      5106560                       # Cumulative packet size per connected master and slave (bytes)
system.tol2bus.pkt_size::total               21323904                       # Cumulative packet size per connected master and slave (bytes)
system.tol2bus.snoops                         1929124                       # Total snoops (count)
system.tol2bus.snoop_fanout::samples          2620427                       # Request fanout histogram
system.tol2bus.snoop_fanout::mean                   9                       # Request fanout histogram
system.tol2bus.snoop_fanout::stdev                  0                       # Request fanout histogram
system.tol2bus.snoop_fanout::underflows             0      0.00%      0.00% # Request fanout histogram
system.tol2bus.snoop_fanout::0                      0      0.00%      0.00% # Request fanout histogram
system.tol2bus.snoop_fanout::1                      0      0.00%      0.00% # Request fanout histogram
system.tol2bus.snoop_fanout::2                      0      0.00%      0.00% # Request fanout histogram
system.tol2bus.snoop_fanout::3                      0      0.00%      0.00% # Request fanout histogram
system.tol2bus.snoop_fanout::4                      0      0.00%      0.00% # Request fanout histogram
system.tol2bus.snoop_fanout::5                      0      0.00%      0.00% # Request fanout histogram
system.tol2bus.snoop_fanout::6                      0      0.00%      0.00% # Request fanout histogram
system.tol2bus.snoop_fanout::7                      0      0.00%      0.00% # Request fanout histogram
system.tol2bus.snoop_fanout::8                      0      0.00%      0.00% # Request fanout histogram
system.tol2bus.snoop_fanout::9                2620427    100.00%    100.00% # Request fanout histogram
system.tol2bus.snoop_fanout::10                     0      0.00%    100.00% # Request fanout histogram
system.tol2bus.snoop_fanout::overflows              0      0.00%    100.00% # Request fanout histogram
system.tol2bus.snoop_fanout::min_value              9                       # Request fanout histogram
system.tol2bus.snoop_fanout::max_value              9                       # Request fanout histogram
system.tol2bus.snoop_fanout::total            2620427                       # Request fanout histogram
system.tol2bus.reqLayer0.occupancy         1374514923                       # Layer occupancy (ticks)
system.tol2bus.reqLayer0.utilization              3.4                       # Layer utilization (%)
system.tol2bus.respLayer0.occupancy            528499                       # Layer occupancy (ticks)
system.tol2bus.respLayer0.utilization             0.0                       # Layer utilization (%)
system.tol2bus.respLayer1.occupancy           1667991                       # Layer occupancy (ticks)
system.tol2bus.respLayer1.utilization             0.0                       # Layer utilization (%)
system.tol2bus.respLayer4.occupancy           3577872                       # Layer occupancy (ticks)
system.tol2bus.respLayer4.utilization             0.0                       # Layer utilization (%)
system.tol2bus.respLayer5.occupancy         844763072                       # Layer occupancy (ticks)
system.tol2bus.respLayer5.utilization             2.1                       # Layer utilization (%)
system.tol2bus.respLayer8.occupancy           3656416                       # Layer occupancy (ticks)
system.tol2bus.respLayer8.utilization             0.0                       # Layer utilization (%)
system.tol2bus.respLayer9.occupancy         844283928                       # Layer occupancy (ticks)
system.tol2bus.respLayer9.utilization             2.1                       # Layer utilization (%)
system.tol2bus.respLayer12.occupancy          3645395                       # Layer occupancy (ticks)
system.tol2bus.respLayer12.utilization            0.0                       # Layer utilization (%)
system.tol2bus.respLayer13.occupancy        863950669                       # Layer occupancy (ticks)
system.tol2bus.respLayer13.utilization            2.2                       # Layer utilization (%)
system.tol2bus.respLayer16.occupancy          3157892                       # Layer occupancy (ticks)
system.tol2bus.respLayer16.utilization            0.0                       # Layer utilization (%)
system.tol2bus.respLayer17.occupancy        814371833                       # Layer occupancy (ticks)
system.tol2bus.respLayer17.utilization            2.0                       # Layer utilization (%)

---------- End Simulation Statistics   ----------
