
---------- Begin Simulation Statistics ----------
sim_seconds                                  0.013741                       # Number of seconds simulated
sim_ticks                                 13741247000                       # Number of ticks simulated
final_tick                                13741247000                       # Number of ticks from beginning of simulation (restored from checkpoints and never reset)
sim_freq                                 1000000000000                       # Frequency of simulated ticks
host_inst_rate                                 201814                       # Simulator instruction rate (inst/s)
host_op_rate                                   209966                       # Simulator op (including micro ops) rate (op/s)
host_tick_rate                               49363192                       # Simulator tick rate (ticks/s)
host_mem_usage                                 685820                       # Number of bytes of host memory used
host_seconds                                   278.37                       # Real time elapsed on the host
sim_insts                                    56178930                       # Number of instructions simulated
sim_ops                                      58448361                       # Number of ops (including micro ops) simulated
system.voltage_domain.voltage                       1                       # Voltage in Volts
system.clk_domain.clock                          1000                       # Clock period in ticks
system.physmem.bytes_read::cpu0.inst            22464                       # Number of bytes read from this memory
system.physmem.bytes_read::cpu0.data            17536                       # Number of bytes read from this memory
system.physmem.bytes_read::cpu1.inst            11200                       # Number of bytes read from this memory
system.physmem.bytes_read::cpu1.data            24192                       # Number of bytes read from this memory
system.physmem.bytes_read::cpu2.inst             6400                       # Number of bytes read from this memory
system.physmem.bytes_read::cpu2.data            33024                       # Number of bytes read from this memory
system.physmem.bytes_read::total               114816                       # Number of bytes read from this memory
system.physmem.bytes_inst_read::cpu0.inst        22464                       # Number of instructions bytes read from this memory
system.physmem.bytes_inst_read::cpu1.inst        11200                       # Number of instructions bytes read from this memory
system.physmem.bytes_inst_read::cpu2.inst         6400                       # Number of instructions bytes read from this memory
system.physmem.bytes_inst_read::total           40064                       # Number of instructions bytes read from this memory
system.physmem.num_reads::cpu0.inst               351                       # Number of read requests responded to by this memory
system.physmem.num_reads::cpu0.data               274                       # Number of read requests responded to by this memory
system.physmem.num_reads::cpu1.inst               175                       # Number of read requests responded to by this memory
system.physmem.num_reads::cpu1.data               378                       # Number of read requests responded to by this memory
system.physmem.num_reads::cpu2.inst               100                       # Number of read requests responded to by this memory
system.physmem.num_reads::cpu2.data               516                       # Number of read requests responded to by this memory
system.physmem.num_reads::total                  1794                       # Number of read requests responded to by this memory
system.physmem.bw_read::cpu0.inst             1634786                       # Total read bandwidth from this memory (bytes/s)
system.physmem.bw_read::cpu0.data             1276158                       # Total read bandwidth from this memory (bytes/s)
system.physmem.bw_read::cpu1.inst              815064                       # Total read bandwidth from this memory (bytes/s)
system.physmem.bw_read::cpu1.data             1760539                       # Total read bandwidth from this memory (bytes/s)
system.physmem.bw_read::cpu2.inst              465751                       # Total read bandwidth from this memory (bytes/s)
system.physmem.bw_read::cpu2.data             2403275                       # Total read bandwidth from this memory (bytes/s)
system.physmem.bw_read::total                 8355574                       # Total read bandwidth from this memory (bytes/s)
system.physmem.bw_inst_read::cpu0.inst        1634786                       # Instruction read bandwidth from this memory (bytes/s)
system.physmem.bw_inst_read::cpu1.inst         815064                       # Instruction read bandwidth from this memory (bytes/s)
system.physmem.bw_inst_read::cpu2.inst         465751                       # Instruction read bandwidth from this memory (bytes/s)
system.physmem.bw_inst_read::total            2915601                       # Instruction read bandwidth from this memory (bytes/s)
system.physmem.bw_total::cpu0.inst            1634786                       # Total bandwidth to/from this memory (bytes/s)
system.physmem.bw_total::cpu0.data            1276158                       # Total bandwidth to/from this memory (bytes/s)
system.physmem.bw_total::cpu1.inst             815064                       # Total bandwidth to/from this memory (bytes/s)
system.physmem.bw_total::cpu1.data            1760539                       # Total bandwidth to/from this memory (bytes/s)
system.physmem.bw_total::cpu2.inst             465751                       # Total bandwidth to/from this memory (bytes/s)
system.physmem.bw_total::cpu2.data            2403275                       # Total bandwidth to/from this memory (bytes/s)
system.physmem.bw_total::total                8355574                       # Total bandwidth to/from this memory (bytes/s)
system.cpu0.branchPred.lookups                6859623                       # Number of BP lookups
system.cpu0.branchPred.condPredicted          6858749                       # Number of conditional branches predicted
system.cpu0.branchPred.condIncorrect              575                       # Number of conditional branches incorrect
system.cpu0.branchPred.BTBLookups             6858033                       # Number of BTB lookups
system.cpu0.branchPred.BTBHits                6857643                       # Number of BTB hits
system.cpu0.branchPred.BTBCorrect                   0                       # Number of correct BTB predictions (this stat may not work properly.
system.cpu0.branchPred.BTBHitPct            99.994313                       # BTB Hit Percentage
system.cpu0.branchPred.usedRAS                    273                       # Number of times the RAS was used to get a target.
system.cpu0.branchPred.RASInCorrect                55                       # Number of incorrect RAS predictions.
system.cpu0.dstage2_mmu.stage2_tlb.walker.walks            0                       # Table walker walks requested
system.cpu0.dstage2_mmu.stage2_tlb.walker.walkRequestOrigin_Requested::Data            0                       # Table walker requests started/completed, data/inst
system.cpu0.dstage2_mmu.stage2_tlb.walker.walkRequestOrigin_Requested::Inst            0                       # Table walker requests started/completed, data/inst
system.cpu0.dstage2_mmu.stage2_tlb.walker.walkRequestOrigin_Requested::total            0                       # Table walker requests started/completed, data/inst
system.cpu0.dstage2_mmu.stage2_tlb.walker.walkRequestOrigin_Completed::Data            0                       # Table walker requests started/completed, data/inst
system.cpu0.dstage2_mmu.stage2_tlb.walker.walkRequestOrigin_Completed::Inst            0                       # Table walker requests started/completed, data/inst
system.cpu0.dstage2_mmu.stage2_tlb.walker.walkRequestOrigin_Completed::total            0                       # Table walker requests started/completed, data/inst
system.cpu0.dstage2_mmu.stage2_tlb.walker.walkRequestOrigin::total            0                       # Table walker requests started/completed, data/inst
system.cpu0.dstage2_mmu.stage2_tlb.inst_hits            0                       # ITB inst hits
system.cpu0.dstage2_mmu.stage2_tlb.inst_misses            0                       # ITB inst misses
system.cpu0.dstage2_mmu.stage2_tlb.read_hits            0                       # DTB read hits
system.cpu0.dstage2_mmu.stage2_tlb.read_misses            0                       # DTB read misses
system.cpu0.dstage2_mmu.stage2_tlb.write_hits            0                       # DTB write hits
system.cpu0.dstage2_mmu.stage2_tlb.write_misses            0                       # DTB write misses
system.cpu0.dstage2_mmu.stage2_tlb.flush_tlb            0                       # Number of times complete TLB was flushed
system.cpu0.dstage2_mmu.stage2_tlb.flush_tlb_mva            0                       # Number of times TLB was flushed by MVA
system.cpu0.dstage2_mmu.stage2_tlb.flush_tlb_mva_asid            0                       # Number of times TLB was flushed by MVA & ASID
system.cpu0.dstage2_mmu.stage2_tlb.flush_tlb_asid            0                       # Number of times TLB was flushed by ASID
system.cpu0.dstage2_mmu.stage2_tlb.flush_entries            0                       # Number of entries that have been flushed from TLB
system.cpu0.dstage2_mmu.stage2_tlb.align_faults            0                       # Number of TLB faults due to alignment restrictions
system.cpu0.dstage2_mmu.stage2_tlb.prefetch_faults            0                       # Number of TLB faults due to prefetch
system.cpu0.dstage2_mmu.stage2_tlb.domain_faults            0                       # Number of TLB faults due to domain restrictions
system.cpu0.dstage2_mmu.stage2_tlb.perms_faults            0                       # Number of TLB faults due to permissions restrictions
system.cpu0.dstage2_mmu.stage2_tlb.read_accesses            0                       # DTB read accesses
system.cpu0.dstage2_mmu.stage2_tlb.write_accesses            0                       # DTB write accesses
system.cpu0.dstage2_mmu.stage2_tlb.inst_accesses            0                       # ITB inst accesses
system.cpu0.dstage2_mmu.stage2_tlb.hits             0                       # DTB hits
system.cpu0.dstage2_mmu.stage2_tlb.misses            0                       # DTB misses
system.cpu0.dstage2_mmu.stage2_tlb.accesses            0                       # DTB accesses
system.cpu0.dtb.walker.walks                        0                       # Table walker walks requested
system.cpu0.dtb.walker.walkRequestOrigin_Requested::Data            0                       # Table walker requests started/completed, data/inst
system.cpu0.dtb.walker.walkRequestOrigin_Requested::Inst            0                       # Table walker requests started/completed, data/inst
system.cpu0.dtb.walker.walkRequestOrigin_Requested::total            0                       # Table walker requests started/completed, data/inst
system.cpu0.dtb.walker.walkRequestOrigin_Completed::Data            0                       # Table walker requests started/completed, data/inst
system.cpu0.dtb.walker.walkRequestOrigin_Completed::Inst            0                       # Table walker requests started/completed, data/inst
system.cpu0.dtb.walker.walkRequestOrigin_Completed::total            0                       # Table walker requests started/completed, data/inst
system.cpu0.dtb.walker.walkRequestOrigin::total            0                       # Table walker requests started/completed, data/inst
system.cpu0.dtb.inst_hits                           0                       # ITB inst hits
system.cpu0.dtb.inst_misses                         0                       # ITB inst misses
system.cpu0.dtb.read_hits                           0                       # DTB read hits
system.cpu0.dtb.read_misses                         0                       # DTB read misses
system.cpu0.dtb.write_hits                          0                       # DTB write hits
system.cpu0.dtb.write_misses                        0                       # DTB write misses
system.cpu0.dtb.flush_tlb                           0                       # Number of times complete TLB was flushed
system.cpu0.dtb.flush_tlb_mva                       0                       # Number of times TLB was flushed by MVA
system.cpu0.dtb.flush_tlb_mva_asid                  0                       # Number of times TLB was flushed by MVA & ASID
system.cpu0.dtb.flush_tlb_asid                      0                       # Number of times TLB was flushed by ASID
system.cpu0.dtb.flush_entries                       0                       # Number of entries that have been flushed from TLB
system.cpu0.dtb.align_faults                        0                       # Number of TLB faults due to alignment restrictions
system.cpu0.dtb.prefetch_faults                     0                       # Number of TLB faults due to prefetch
system.cpu0.dtb.domain_faults                       0                       # Number of TLB faults due to domain restrictions
system.cpu0.dtb.perms_faults                        0                       # Number of TLB faults due to permissions restrictions
system.cpu0.dtb.read_accesses                       0                       # DTB read accesses
system.cpu0.dtb.write_accesses                      0                       # DTB write accesses
system.cpu0.dtb.inst_accesses                       0                       # ITB inst accesses
system.cpu0.dtb.hits                                0                       # DTB hits
system.cpu0.dtb.misses                              0                       # DTB misses
system.cpu0.dtb.accesses                            0                       # DTB accesses
system.cpu0.istage2_mmu.stage2_tlb.walker.walks            0                       # Table walker walks requested
system.cpu0.istage2_mmu.stage2_tlb.walker.walkRequestOrigin_Requested::Data            0                       # Table walker requests started/completed, data/inst
system.cpu0.istage2_mmu.stage2_tlb.walker.walkRequestOrigin_Requested::Inst            0                       # Table walker requests started/completed, data/inst
system.cpu0.istage2_mmu.stage2_tlb.walker.walkRequestOrigin_Requested::total            0                       # Table walker requests started/completed, data/inst
system.cpu0.istage2_mmu.stage2_tlb.walker.walkRequestOrigin_Completed::Data            0                       # Table walker requests started/completed, data/inst
system.cpu0.istage2_mmu.stage2_tlb.walker.walkRequestOrigin_Completed::Inst            0                       # Table walker requests started/completed, data/inst
system.cpu0.istage2_mmu.stage2_tlb.walker.walkRequestOrigin_Completed::total            0                       # Table walker requests started/completed, data/inst
system.cpu0.istage2_mmu.stage2_tlb.walker.walkRequestOrigin::total            0                       # Table walker requests started/completed, data/inst
system.cpu0.istage2_mmu.stage2_tlb.inst_hits            0                       # ITB inst hits
system.cpu0.istage2_mmu.stage2_tlb.inst_misses            0                       # ITB inst misses
system.cpu0.istage2_mmu.stage2_tlb.read_hits            0                       # DTB read hits
system.cpu0.istage2_mmu.stage2_tlb.read_misses            0                       # DTB read misses
system.cpu0.istage2_mmu.stage2_tlb.write_hits            0                       # DTB write hits
system.cpu0.istage2_mmu.stage2_tlb.write_misses            0                       # DTB write misses
system.cpu0.istage2_mmu.stage2_tlb.flush_tlb            0                       # Number of times complete TLB was flushed
system.cpu0.istage2_mmu.stage2_tlb.flush_tlb_mva            0                       # Number of times TLB was flushed by MVA
system.cpu0.istage2_mmu.stage2_tlb.flush_tlb_mva_asid            0                       # Number of times TLB was flushed by MVA & ASID
system.cpu0.istage2_mmu.stage2_tlb.flush_tlb_asid            0                       # Number of times TLB was flushed by ASID
system.cpu0.istage2_mmu.stage2_tlb.flush_entries            0                       # Number of entries that have been flushed from TLB
system.cpu0.istage2_mmu.stage2_tlb.align_faults            0                       # Number of TLB faults due to alignment restrictions
system.cpu0.istage2_mmu.stage2_tlb.prefetch_faults            0                       # Number of TLB faults due to prefetch
system.cpu0.istage2_mmu.stage2_tlb.domain_faults            0                       # Number of TLB faults due to domain restrictions
system.cpu0.istage2_mmu.stage2_tlb.perms_faults            0                       # Number of TLB faults due to permissions restrictions
system.cpu0.istage2_mmu.stage2_tlb.read_accesses            0                       # DTB read accesses
system.cpu0.istage2_mmu.stage2_tlb.write_accesses            0                       # DTB write accesses
system.cpu0.istage2_mmu.stage2_tlb.inst_accesses            0                       # ITB inst accesses
system.cpu0.istage2_mmu.stage2_tlb.hits             0                       # DTB hits
system.cpu0.istage2_mmu.stage2_tlb.misses            0                       # DTB misses
system.cpu0.istage2_mmu.stage2_tlb.accesses            0                       # DTB accesses
system.cpu0.itb.walker.walks                        0                       # Table walker walks requested
system.cpu0.itb.walker.walkRequestOrigin_Requested::Data            0                       # Table walker requests started/completed, data/inst
system.cpu0.itb.walker.walkRequestOrigin_Requested::Inst            0                       # Table walker requests started/completed, data/inst
system.cpu0.itb.walker.walkRequestOrigin_Requested::total            0                       # Table walker requests started/completed, data/inst
system.cpu0.itb.walker.walkRequestOrigin_Completed::Data            0                       # Table walker requests started/completed, data/inst
system.cpu0.itb.walker.walkRequestOrigin_Completed::Inst            0                       # Table walker requests started/completed, data/inst
system.cpu0.itb.walker.walkRequestOrigin_Completed::total            0                       # Table walker requests started/completed, data/inst
system.cpu0.itb.walker.walkRequestOrigin::total            0                       # Table walker requests started/completed, data/inst
system.cpu0.itb.inst_hits                           0                       # ITB inst hits
system.cpu0.itb.inst_misses                         0                       # ITB inst misses
system.cpu0.itb.read_hits                           0                       # DTB read hits
system.cpu0.itb.read_misses                         0                       # DTB read misses
system.cpu0.itb.write_hits                          0                       # DTB write hits
system.cpu0.itb.write_misses                        0                       # DTB write misses
system.cpu0.itb.flush_tlb                           0                       # Number of times complete TLB was flushed
system.cpu0.itb.flush_tlb_mva                       0                       # Number of times TLB was flushed by MVA
system.cpu0.itb.flush_tlb_mva_asid                  0                       # Number of times TLB was flushed by MVA & ASID
system.cpu0.itb.flush_tlb_asid                      0                       # Number of times TLB was flushed by ASID
system.cpu0.itb.flush_entries                       0                       # Number of entries that have been flushed from TLB
system.cpu0.itb.align_faults                        0                       # Number of TLB faults due to alignment restrictions
system.cpu0.itb.prefetch_faults                     0                       # Number of TLB faults due to prefetch
system.cpu0.itb.domain_faults                       0                       # Number of TLB faults due to domain restrictions
system.cpu0.itb.perms_faults                        0                       # Number of TLB faults due to permissions restrictions
system.cpu0.itb.read_accesses                       0                       # DTB read accesses
system.cpu0.itb.write_accesses                      0                       # DTB write accesses
system.cpu0.itb.inst_accesses                       0                       # ITB inst accesses
system.cpu0.itb.hits                                0                       # DTB hits
system.cpu0.itb.misses                              0                       # DTB misses
system.cpu0.itb.accesses                            0                       # DTB accesses
system.cpu0.workload.num_syscalls               16045                       # Number of system calls
system.cpu0.numCycles                        13741248                       # number of cpu cycles simulated
system.cpu0.numWorkItemsStarted                     0                       # number of work items this cpu started
system.cpu0.numWorkItemsCompleted                   0                       # number of work items this cpu completed
system.cpu0.fetch.icacheStallCycles              8178                       # Number of cycles fetch is stalled on an Icache miss
system.cpu0.fetch.Insts                      34299090                       # Number of instructions fetch has processed
system.cpu0.fetch.Branches                    6859623                       # Number of branches that fetch encountered
system.cpu0.fetch.predictedBranches           6857916                       # Number of branches that fetch has predicted taken
system.cpu0.fetch.Cycles                     13724008                       # Number of cycles fetch has run and was not squashing or blocked
system.cpu0.fetch.SquashCycles                   1249                       # Number of cycles fetch has spent squashing
system.cpu0.fetch.PendingTrapStallCycles          162                       # Number of stall cycles due to pending traps
system.cpu0.fetch.CacheLines                     1928                       # Number of cache lines fetched
system.cpu0.fetch.IcacheSquashes                  249                       # Number of outstanding Icache misses that were squashed
system.cpu0.fetch.rateDist::samples          13732972                       # Number of instructions fetched each cycle (Total)
system.cpu0.fetch.rateDist::mean             2.497882                       # Number of instructions fetched each cycle (Total)
system.cpu0.fetch.rateDist::stdev            0.505422                       # Number of instructions fetched each cycle (Total)
system.cpu0.fetch.rateDist::underflows              0      0.00%      0.00% # Number of instructions fetched each cycle (Total)
system.cpu0.fetch.rateDist::0                   12292      0.09%      0.09% # Number of instructions fetched each cycle (Total)
system.cpu0.fetch.rateDist::1                     585      0.00%      0.09% # Number of instructions fetched each cycle (Total)
system.cpu0.fetch.rateDist::2                 6857530     49.93%     50.03% # Number of instructions fetched each cycle (Total)
system.cpu0.fetch.rateDist::3                 6862565     49.97%    100.00% # Number of instructions fetched each cycle (Total)
system.cpu0.fetch.rateDist::overflows               0      0.00%    100.00% # Number of instructions fetched each cycle (Total)
system.cpu0.fetch.rateDist::min_value               0                       # Number of instructions fetched each cycle (Total)
system.cpu0.fetch.rateDist::max_value               3                       # Number of instructions fetched each cycle (Total)
system.cpu0.fetch.rateDist::total            13732972                       # Number of instructions fetched each cycle (Total)
system.cpu0.fetch.branchRate                 0.499199                       # Number of branch fetches per cycle
system.cpu0.fetch.rate                       2.496068                       # Number of inst fetches per cycle
system.cpu0.decode.IdleCycles                    7710                       # Number of cycles decode is idle
system.cpu0.decode.BlockedCycles                 5009                       # Number of cycles decode is blocked
system.cpu0.decode.RunCycles                 13719185                       # Number of cycles decode is running
system.cpu0.decode.UnblockCycles                  638                       # Number of cycles decode is unblocking
system.cpu0.decode.SquashCycles                   430                       # Number of cycles decode is squashing
system.cpu0.decode.BranchResolved                 354                       # Number of times decode resolved a branch
system.cpu0.decode.BranchMispred                  200                       # Number of times decode detected a branch misprediction
system.cpu0.decode.DecodedInsts              34301033                       # Number of instructions handled by decode
system.cpu0.decode.SquashedInsts                  464                       # Number of squashed instructions handled by decode
system.cpu0.rename.SquashCycles                   430                       # Number of cycles rename is squashing
system.cpu0.rename.IdleCycles                    8269                       # Number of cycles rename is idle
system.cpu0.rename.BlockCycles                    525                       # Number of cycles rename is blocking
system.cpu0.rename.serializeStallCycles          1767                       # count of cycles rename stalled for serializing inst
system.cpu0.rename.RunCycles                 13719155                       # Number of cycles rename is running
system.cpu0.rename.UnblockCycles                 2826                       # Number of cycles rename is unblocking
system.cpu0.rename.RenamedInsts              34300373                       # Number of instructions processed by rename
system.cpu0.rename.IQFullEvents                    20                       # Number of times rename has blocked due to IQ full
system.cpu0.rename.LQFullEvents                    11                       # Number of times rename has blocked due to LQ full
system.cpu0.rename.SQFullEvents                  2656                       # Number of times rename has blocked due to SQ full
system.cpu0.rename.RenamedOperands           34301901                       # Number of destination operands rename has renamed
system.cpu0.rename.RenameLookups            157786421                       # Number of register rename lookups that rename has made
system.cpu0.rename.int_rename_lookups        34305632                       # Number of integer rename lookups
system.cpu0.rename.fp_rename_lookups               16                       # Number of floating rename lookups
system.cpu0.rename.CommittedMaps             34296357                       # Number of HB maps that are committed
system.cpu0.rename.UndoneMaps                    5544                       # Number of HB maps that are undone due to squashing
system.cpu0.rename.serializingInsts                48                       # count of serializing insts renamed
system.cpu0.rename.tempSerializingInsts            47                       # count of temporary serializing insts renamed
system.cpu0.rename.skidInsts                     1215                       # count of insts added to the skid buffer
system.cpu0.memDep0.insertedLoads            13715589                       # Number of loads inserted to the mem dependence unit.
system.cpu0.memDep0.insertedStores            6860349                       # Number of stores inserted to the mem dependence unit.
system.cpu0.memDep0.conflictingLoads          6856565                       # Number of conflicting loads.
system.cpu0.memDep0.conflictingStores         6856538                       # Number of conflicting stores.
system.cpu0.iq.iqInstsAdded                  34299095                       # Number of instructions added to the IQ (excludes non-spec)
system.cpu0.iq.iqNonSpecInstsAdded                 70                       # Number of non-speculative instructions added to the IQ
system.cpu0.iq.iqInstsIssued                 34297564                       # Number of instructions issued
system.cpu0.iq.iqSquashedInstsIssued              140                       # Number of squashed instructions issued
system.cpu0.iq.iqSquashedInstsExamined           3840                       # Number of squashed instructions iterated over during squash; mainly for profiling
system.cpu0.iq.iqSquashedOperandsExamined         9657                       # Number of squashed operands that are examined and possibly removed from graph
system.cpu0.iq.iqSquashedNonSpecRemoved             5                       # Number of squashed non-spec instructions that were removed
system.cpu0.iq.issued_per_cycle::samples     13732972                       # Number of insts issued each cycle
system.cpu0.iq.issued_per_cycle::mean        2.497461                       # Number of insts issued each cycle
system.cpu0.iq.issued_per_cycle::stdev       0.710986                       # Number of insts issued each cycle
system.cpu0.iq.issued_per_cycle::underflows            0      0.00%      0.00% # Number of insts issued each cycle
system.cpu0.iq.issued_per_cycle::0              12485      0.09%      0.09% # Number of insts issued each cycle
system.cpu0.iq.issued_per_cycle::1            1716983     12.50%     12.59% # Number of insts issued each cycle
system.cpu0.iq.issued_per_cycle::2            3429931     24.98%     37.57% # Number of insts issued each cycle
system.cpu0.iq.issued_per_cycle::3            8573573     62.43%    100.00% # Number of insts issued each cycle
system.cpu0.iq.issued_per_cycle::overflows            0      0.00%    100.00% # Number of insts issued each cycle
system.cpu0.iq.issued_per_cycle::min_value            0                       # Number of insts issued each cycle
system.cpu0.iq.issued_per_cycle::max_value            3                       # Number of insts issued each cycle
system.cpu0.iq.issued_per_cycle::total       13732972                       # Number of insts issued each cycle
system.cpu0.iq.fu_full::No_OpClass                  0                       # attempts to use FU when none available
system.cpu0.iq.fu_full::IntAlu                      0                       # attempts to use FU when none available
system.cpu0.iq.fu_full::IntMult                     0                       # attempts to use FU when none available
system.cpu0.iq.fu_full::IntDiv                      0                       # attempts to use FU when none available
system.cpu0.iq.fu_full::FloatAdd                    0                       # attempts to use FU when none available
system.cpu0.iq.fu_full::FloatCmp                    0                       # attempts to use FU when none available
system.cpu0.iq.fu_full::FloatCvt                    0                       # attempts to use FU when none available
system.cpu0.iq.fu_full::FloatMult                   0                       # attempts to use FU when none available
system.cpu0.iq.fu_full::FloatDiv                    0                       # attempts to use FU when none available
system.cpu0.iq.fu_full::FloatSqrt                   0                       # attempts to use FU when none available
system.cpu0.iq.fu_full::SimdAdd                     0                       # attempts to use FU when none available
system.cpu0.iq.fu_full::SimdAddAcc                  0                       # attempts to use FU when none available
system.cpu0.iq.fu_full::SimdAlu                     0                       # attempts to use FU when none available
system.cpu0.iq.fu_full::SimdCmp                     0                       # attempts to use FU when none available
system.cpu0.iq.fu_full::SimdCvt                     0                       # attempts to use FU when none available
system.cpu0.iq.fu_full::SimdMisc                    0                       # attempts to use FU when none available
system.cpu0.iq.fu_full::SimdMult                    0                       # attempts to use FU when none available
system.cpu0.iq.fu_full::SimdMultAcc                 0                       # attempts to use FU when none available
system.cpu0.iq.fu_full::SimdShift                   0                       # attempts to use FU when none available
system.cpu0.iq.fu_full::SimdShiftAcc                0                       # attempts to use FU when none available
system.cpu0.iq.fu_full::SimdSqrt                    0                       # attempts to use FU when none available
system.cpu0.iq.fu_full::SimdFloatAdd                0                       # attempts to use FU when none available
system.cpu0.iq.fu_full::SimdFloatAlu                0                       # attempts to use FU when none available
system.cpu0.iq.fu_full::SimdFloatCmp                0                       # attempts to use FU when none available
system.cpu0.iq.fu_full::SimdFloatCvt                0                       # attempts to use FU when none available
system.cpu0.iq.fu_full::SimdFloatDiv                0                       # attempts to use FU when none available
system.cpu0.iq.fu_full::SimdFloatMisc               0                       # attempts to use FU when none available
system.cpu0.iq.fu_full::SimdFloatMult               0                       # attempts to use FU when none available
system.cpu0.iq.fu_full::SimdFloatMultAcc            0                       # attempts to use FU when none available
system.cpu0.iq.fu_full::SimdFloatSqrt               0                       # attempts to use FU when none available
system.cpu0.iq.fu_full::MemRead                     0                       # attempts to use FU when none available
system.cpu0.iq.fu_full::MemWrite                    0                       # attempts to use FU when none available
system.cpu0.iq.fu_full::IprAccess                   0                       # attempts to use FU when none available
system.cpu0.iq.fu_full::InstPrefetch                0                       # attempts to use FU when none available
system.cpu0.iq.FU_type_0::No_OpClass                0      0.00%      0.00% # Type of FU issued
system.cpu0.iq.FU_type_0::IntAlu             13722069     40.01%     40.01% # Type of FU issued
system.cpu0.iq.FU_type_0::IntMult                   6      0.00%     40.01% # Type of FU issued
system.cpu0.iq.FU_type_0::IntDiv                    0      0.00%     40.01% # Type of FU issued
system.cpu0.iq.FU_type_0::FloatAdd                  0      0.00%     40.01% # Type of FU issued
system.cpu0.iq.FU_type_0::FloatCmp                  0      0.00%     40.01% # Type of FU issued
system.cpu0.iq.FU_type_0::FloatCvt                  0      0.00%     40.01% # Type of FU issued
system.cpu0.iq.FU_type_0::FloatMult                 0      0.00%     40.01% # Type of FU issued
system.cpu0.iq.FU_type_0::FloatDiv                  0      0.00%     40.01% # Type of FU issued
system.cpu0.iq.FU_type_0::FloatSqrt                 0      0.00%     40.01% # Type of FU issued
system.cpu0.iq.FU_type_0::SimdAdd                   0      0.00%     40.01% # Type of FU issued
system.cpu0.iq.FU_type_0::SimdAddAcc                0      0.00%     40.01% # Type of FU issued
system.cpu0.iq.FU_type_0::SimdAlu                   0      0.00%     40.01% # Type of FU issued
system.cpu0.iq.FU_type_0::SimdCmp                   0      0.00%     40.01% # Type of FU issued
system.cpu0.iq.FU_type_0::SimdCvt                   0      0.00%     40.01% # Type of FU issued
system.cpu0.iq.FU_type_0::SimdMisc                  0      0.00%     40.01% # Type of FU issued
system.cpu0.iq.FU_type_0::SimdMult                  0      0.00%     40.01% # Type of FU issued
system.cpu0.iq.FU_type_0::SimdMultAcc               0      0.00%     40.01% # Type of FU issued
system.cpu0.iq.FU_type_0::SimdShift                 0      0.00%     40.01% # Type of FU issued
system.cpu0.iq.FU_type_0::SimdShiftAcc              0      0.00%     40.01% # Type of FU issued
system.cpu0.iq.FU_type_0::SimdSqrt                  0      0.00%     40.01% # Type of FU issued
system.cpu0.iq.FU_type_0::SimdFloatAdd              0      0.00%     40.01% # Type of FU issued
system.cpu0.iq.FU_type_0::SimdFloatAlu              0      0.00%     40.01% # Type of FU issued
system.cpu0.iq.FU_type_0::SimdFloatCmp              0      0.00%     40.01% # Type of FU issued
system.cpu0.iq.FU_type_0::SimdFloatCvt              0      0.00%     40.01% # Type of FU issued
system.cpu0.iq.FU_type_0::SimdFloatDiv              0      0.00%     40.01% # Type of FU issued
system.cpu0.iq.FU_type_0::SimdFloatMisc             3      0.00%     40.01% # Type of FU issued
system.cpu0.iq.FU_type_0::SimdFloatMult             0      0.00%     40.01% # Type of FU issued
system.cpu0.iq.FU_type_0::SimdFloatMultAcc            0      0.00%     40.01% # Type of FU issued
system.cpu0.iq.FU_type_0::SimdFloatSqrt             0      0.00%     40.01% # Type of FU issued
system.cpu0.iq.FU_type_0::MemRead            13715313     39.99%     80.00% # Type of FU issued
system.cpu0.iq.FU_type_0::MemWrite            6860173     20.00%    100.00% # Type of FU issued
system.cpu0.iq.FU_type_0::IprAccess                 0      0.00%    100.00% # Type of FU issued
system.cpu0.iq.FU_type_0::InstPrefetch              0      0.00%    100.00% # Type of FU issued
system.cpu0.iq.FU_type_0::total              34297564                       # Type of FU issued
system.cpu0.iq.rate                          2.495957                       # Inst issue rate
system.cpu0.iq.fu_busy_cnt                          0                       # FU busy when requested
system.cpu0.iq.fu_busy_rate                         0                       # FU busy rate (busy events/executed inst)
system.cpu0.iq.int_inst_queue_reads          82328208                       # Number of integer instruction queue reads
system.cpu0.iq.int_inst_queue_writes         34303027                       # Number of integer instruction queue writes
system.cpu0.iq.int_inst_queue_wakeup_accesses     34296870                       # Number of integer instruction queue wakeup accesses
system.cpu0.iq.fp_inst_queue_reads                 32                       # Number of floating instruction queue reads
system.cpu0.iq.fp_inst_queue_writes                16                       # Number of floating instruction queue writes
system.cpu0.iq.fp_inst_queue_wakeup_accesses           16                       # Number of floating instruction queue wakeup accesses
system.cpu0.iq.int_alu_accesses              34297548                       # Number of integer alu accesses
system.cpu0.iq.fp_alu_accesses                     16                       # Number of floating point alu accesses
system.cpu0.iew.lsq.thread0.forwLoads         6856616                       # Number of loads that had data forwarded from stores
system.cpu0.iew.lsq.thread0.invAddrLoads            0                       # Number of loads ignored due to an invalid address
system.cpu0.iew.lsq.thread0.squashedLoads          974                       # Number of loads squashed
system.cpu0.iew.lsq.thread0.ignoredResponses            2                       # Number of memory responses ignored because the instruction is squashed
system.cpu0.iew.lsq.thread0.memOrderViolation           38                       # Number of memory ordering violations
system.cpu0.iew.lsq.thread0.squashedStores          348                       # Number of stores squashed
system.cpu0.iew.lsq.thread0.invAddrSwpfs            0                       # Number of software prefetches ignored due to an invalid address
system.cpu0.iew.lsq.thread0.blockedLoads            0                       # Number of blocked loads due to partial load-store forwarding
system.cpu0.iew.lsq.thread0.rescheduledLoads            4                       # Number of loads that were rescheduled
system.cpu0.iew.lsq.thread0.cacheBlocked            0                       # Number of times an access to memory failed due to the cache being blocked
system.cpu0.iew.iewIdleCycles                       0                       # Number of cycles IEW is idle
system.cpu0.iew.iewSquashCycles                   430                       # Number of cycles IEW is squashing
system.cpu0.iew.iewBlockCycles                    386                       # Number of cycles IEW is blocking
system.cpu0.iew.iewUnblockCycles                  137                       # Number of cycles IEW is unblocking
system.cpu0.iew.iewDispatchedInsts           34299184                       # Number of instructions dispatched to IQ
system.cpu0.iew.iewDispSquashedInsts              246                       # Number of squashed instructions skipped by dispatch
system.cpu0.iew.iewDispLoadInsts             13715589                       # Number of dispatched load instructions
system.cpu0.iew.iewDispStoreInsts             6860349                       # Number of dispatched store instructions
system.cpu0.iew.iewDispNonSpecInsts                44                       # Number of dispatched non-speculative instructions
system.cpu0.iew.iewIQFullEvents                    11                       # Number of times the IQ has become full, causing a stall
system.cpu0.iew.iewLSQFullEvents                    0                       # Number of times the LSQ has become full, causing a stall
system.cpu0.iew.memOrderViolationEvents            38                       # Number of memory order violations
system.cpu0.iew.predictedTakenIncorrect           107                       # Number of branches that were predicted taken incorrectly
system.cpu0.iew.predictedNotTakenIncorrect          298                       # Number of branches that were predicted not taken incorrectly
system.cpu0.iew.branchMispredicts                 405                       # Number of branch mispredicts detected at execute
system.cpu0.iew.iewExecutedInsts             34297175                       # Number of executed instructions
system.cpu0.iew.iewExecLoadInsts             13715202                       # Number of load instructions executed
system.cpu0.iew.iewExecSquashedInsts              389                       # Number of squashed instructions skipped in execute
system.cpu0.iew.exec_swp                            0                       # number of swp insts executed
system.cpu0.iew.exec_nop                           19                       # number of nop insts executed
system.cpu0.iew.exec_refs                    20575312                       # number of memory reference insts executed
system.cpu0.iew.exec_branches                 6858516                       # Number of branches executed
system.cpu0.iew.exec_forward_branches             821                       # Number of forward branches executed
system.cpu0.iew.exec_backward_branches        6857392                       # Number of backward branches executed
system.cpu0.iew.exec_taken_forward_branches          299                       # Number of forward branches executed that is taken
system.cpu0.iew.exec_nottaken_forward_branches          522                       # Number of forward branches executed that is not taken
system.cpu0.iew.exec_taken_backward_branches      6857157                       # Number of backward branches executed that is taken
system.cpu0.iew.exec_nottaken_backward_branches          235                       # Number of backward branches executed that is not taken
system.cpu0.iew.exec_stores                   6860110                       # Number of stores executed
system.cpu0.iew.exec_rate                    2.495929                       # Inst execution rate
system.cpu0.iew.wb_sent                      34296957                       # cumulative count of insts sent to commit
system.cpu0.iew.wb_count                     34296886                       # cumulative count of insts written-back
system.cpu0.iew.wb_producers                 20575954                       # num instructions producing a value
system.cpu0.iew.wb_consumers                 20585888                       # num instructions consuming a value
system.cpu0.iew.wb_penalized                        0                       # number of instrctions required to write to 'other' IQ
system.cpu0.iew.wb_rate                      2.495908                       # insts written-back per cycle
system.cpu0.iew.wb_fanout                    0.999517                       # average fanout of values written-back
system.cpu0.iew.wb_penalized_rate                   0                       # fraction of instructions written-back that wrote to 'other' IQ
system.cpu0.commit.commitSquashedInsts           3858                       # The number of squashed insts skipped by commit
system.cpu0.commit.commitNonSpecStalls             65                       # The number of times commit has been forced to stall to communicate backwards
system.cpu0.commit.branchMispredicts              381                       # The number of times a branch was mispredicted
system.cpu0.commit.committed_per_cycle::samples     13732259                       # Number of insts commited each cycle
system.cpu0.commit.committed_per_cycle::mean     2.497428                       # Number of insts commited each cycle
system.cpu0.commit.committed_per_cycle::stdev     1.582216                       # Number of insts commited each cycle
system.cpu0.commit.committed_per_cycle::underflows            0      0.00%      0.00% # Number of insts commited each cycle
system.cpu0.commit.committed_per_cycle::0        13316      0.10%      0.10% # Number of insts commited each cycle
system.cpu0.commit.committed_per_cycle::1      6859027     49.95%     50.05% # Number of insts commited each cycle
system.cpu0.commit.committed_per_cycle::2         1145      0.01%     50.05% # Number of insts commited each cycle
system.cpu0.commit.committed_per_cycle::3      1715932     12.50%     62.55% # Number of insts commited each cycle
system.cpu0.commit.committed_per_cycle::4      3428400     24.97%     87.52% # Number of insts commited each cycle
system.cpu0.commit.committed_per_cycle::5      1714233     12.48%    100.00% # Number of insts commited each cycle
system.cpu0.commit.committed_per_cycle::6           73      0.00%    100.00% # Number of insts commited each cycle
system.cpu0.commit.committed_per_cycle::7           55      0.00%    100.00% # Number of insts commited each cycle
system.cpu0.commit.committed_per_cycle::8           78      0.00%    100.00% # Number of insts commited each cycle
system.cpu0.commit.committed_per_cycle::overflows            0      0.00%    100.00% # Number of insts commited each cycle
system.cpu0.commit.committed_per_cycle::min_value            0                       # Number of insts commited each cycle
system.cpu0.commit.committed_per_cycle::max_value            8                       # Number of insts commited each cycle
system.cpu0.commit.committed_per_cycle::total     13732259                       # Number of insts commited each cycle
system.cpu0.commit.committedInsts            34291994                       # Number of instructions committed
system.cpu0.commit.committedOps              34295325                       # Number of ops (including micro ops) committed
system.cpu0.commit.swp_count                        0                       # Number of s/w prefetches committed
system.cpu0.commit.refs                      20574616                       # Number of memory references committed
system.cpu0.commit.loads                     13714615                       # Number of loads committed
system.cpu0.commit.membars                         26                       # Number of memory barriers committed
system.cpu0.commit.branches                   6858216                       # Number of branches committed
system.cpu0.commit.fp_insts                        16                       # Number of committed floating point instructions.
system.cpu0.commit.int_insts                 27437483                       # Number of committed integer instructions.
system.cpu0.commit.function_calls                 146                       # Number of function calls committed.
system.cpu0.commit.op_class_0::No_OpClass            0      0.00%      0.00% # Class of committed instruction
system.cpu0.commit.op_class_0::IntAlu        13720700     40.01%     40.01% # Class of committed instruction
system.cpu0.commit.op_class_0::IntMult              6      0.00%     40.01% # Class of committed instruction
system.cpu0.commit.op_class_0::IntDiv               0      0.00%     40.01% # Class of committed instruction
system.cpu0.commit.op_class_0::FloatAdd             0      0.00%     40.01% # Class of committed instruction
system.cpu0.commit.op_class_0::FloatCmp             0      0.00%     40.01% # Class of committed instruction
system.cpu0.commit.op_class_0::FloatCvt             0      0.00%     40.01% # Class of committed instruction
system.cpu0.commit.op_class_0::FloatMult            0      0.00%     40.01% # Class of committed instruction
system.cpu0.commit.op_class_0::FloatDiv             0      0.00%     40.01% # Class of committed instruction
system.cpu0.commit.op_class_0::FloatSqrt            0      0.00%     40.01% # Class of committed instruction
system.cpu0.commit.op_class_0::SimdAdd              0      0.00%     40.01% # Class of committed instruction
system.cpu0.commit.op_class_0::SimdAddAcc            0      0.00%     40.01% # Class of committed instruction
system.cpu0.commit.op_class_0::SimdAlu              0      0.00%     40.01% # Class of committed instruction
system.cpu0.commit.op_class_0::SimdCmp              0      0.00%     40.01% # Class of committed instruction
system.cpu0.commit.op_class_0::SimdCvt              0      0.00%     40.01% # Class of committed instruction
system.cpu0.commit.op_class_0::SimdMisc             0      0.00%     40.01% # Class of committed instruction
system.cpu0.commit.op_class_0::SimdMult             0      0.00%     40.01% # Class of committed instruction
system.cpu0.commit.op_class_0::SimdMultAcc            0      0.00%     40.01% # Class of committed instruction
system.cpu0.commit.op_class_0::SimdShift            0      0.00%     40.01% # Class of committed instruction
system.cpu0.commit.op_class_0::SimdShiftAcc            0      0.00%     40.01% # Class of committed instruction
system.cpu0.commit.op_class_0::SimdSqrt             0      0.00%     40.01% # Class of committed instruction
system.cpu0.commit.op_class_0::SimdFloatAdd            0      0.00%     40.01% # Class of committed instruction
system.cpu0.commit.op_class_0::SimdFloatAlu            0      0.00%     40.01% # Class of committed instruction
system.cpu0.commit.op_class_0::SimdFloatCmp            0      0.00%     40.01% # Class of committed instruction
system.cpu0.commit.op_class_0::SimdFloatCvt            0      0.00%     40.01% # Class of committed instruction
system.cpu0.commit.op_class_0::SimdFloatDiv            0      0.00%     40.01% # Class of committed instruction
system.cpu0.commit.op_class_0::SimdFloatMisc            3      0.00%     40.01% # Class of committed instruction
system.cpu0.commit.op_class_0::SimdFloatMult            0      0.00%     40.01% # Class of committed instruction
system.cpu0.commit.op_class_0::SimdFloatMultAcc            0      0.00%     40.01% # Class of committed instruction
system.cpu0.commit.op_class_0::SimdFloatSqrt            0      0.00%     40.01% # Class of committed instruction
system.cpu0.commit.op_class_0::MemRead       13714615     39.99%     80.00% # Class of committed instruction
system.cpu0.commit.op_class_0::MemWrite       6860001     20.00%    100.00% # Class of committed instruction
system.cpu0.commit.op_class_0::IprAccess            0      0.00%    100.00% # Class of committed instruction
system.cpu0.commit.op_class_0::InstPrefetch            0      0.00%    100.00% # Class of committed instruction
system.cpu0.commit.op_class_0::total         34295325                       # Class of committed instruction
system.cpu0.commit.bw_lim_events                   78                       # number cycles where commit BW limit reached
system.cpu0.rob.rob_reads                    48031207                       # The number of ROB reads
system.cpu0.rob.rob_writes                   68599083                       # The number of ROB writes
system.cpu0.timesIdled                            249                       # Number of times that the entire CPU went into an idle state and unscheduled itself
system.cpu0.idleCycles                           8276                       # Total number of cycles that the CPU has spent unscheduled due to idling
system.cpu0.committedInsts                   34291994                       # Number of Instructions Simulated
system.cpu0.committedOps                     34295325                       # Number of Ops (including micro ops) Simulated
system.cpu0.cpi                              0.400713                       # CPI: Cycles Per Instruction
system.cpu0.cpi_total                        0.400713                       # CPI: Total CPI of All Threads
system.cpu0.ipc                              2.495552                       # IPC: Instructions Per Cycle
system.cpu0.ipc_total                        2.495552                       # IPC: Total IPC of All Threads
system.cpu0.int_regfile_reads                34299671                       # number of integer regfile reads
system.cpu0.int_regfile_writes               13720997                       # number of integer regfile writes
system.cpu0.fp_regfile_reads                      336                       # number of floating regfile reads
system.cpu0.cc_regfile_reads                144036210                       # number of cc regfile reads
system.cpu0.cc_regfile_writes                20576960                       # number of cc regfile writes
system.cpu0.misc_regfile_reads               20843626                       # number of misc regfile reads
system.cpu0.misc_regfile_writes                    52                       # number of misc regfile writes
system.cpu0.dcache.tags.replacements               30                       # number of replacements
system.cpu0.dcache.tags.tagsinuse          153.888972                       # Cycle average of tags in use
system.cpu0.dcache.tags.total_refs           13715686                       # Total number of references to valid blocks.
system.cpu0.dcache.tags.sampled_refs              200                       # Sample count of references to valid blocks.
system.cpu0.dcache.tags.avg_refs         68578.430000                       # Average number of references to valid blocks.
system.cpu0.dcache.tags.warmup_cycle                0                       # Cycle when the warmup percentage was hit.
system.cpu0.dcache.tags.occ_blocks::cpu0.data   153.888972                       # Average occupied blocks per requestor
system.cpu0.dcache.tags.occ_percent::cpu0.data     0.300564                       # Average percentage of cache occupancy
system.cpu0.dcache.tags.occ_percent::total     0.300564                       # Average percentage of cache occupancy
system.cpu0.dcache.tags.occ_task_id_blocks::1024          170                       # Occupied blocks per task id
system.cpu0.dcache.tags.age_task_id_blocks_1024::0           25                       # Occupied blocks per task id
system.cpu0.dcache.tags.age_task_id_blocks_1024::4          145                       # Occupied blocks per task id
system.cpu0.dcache.tags.occ_task_id_percent::1024     0.332031                       # Percentage of cache occupancy per task id
system.cpu0.dcache.tags.tag_accesses         27437134                       # Number of tag accesses
system.cpu0.dcache.tags.data_accesses        27437134                       # Number of data accesses
system.cpu0.dcache.ReadReq_hits::cpu0.data      6858223                       # number of ReadReq hits
system.cpu0.dcache.ReadReq_hits::total        6858223                       # number of ReadReq hits
system.cpu0.dcache.WriteReq_hits::cpu0.data      6857563                       # number of WriteReq hits
system.cpu0.dcache.WriteReq_hits::total       6857563                       # number of WriteReq hits
system.cpu0.dcache.LoadLockedReq_hits::cpu0.data           22                       # number of LoadLockedReq hits
system.cpu0.dcache.LoadLockedReq_hits::total           22                       # number of LoadLockedReq hits
system.cpu0.dcache.StoreCondReq_hits::cpu0.data           24                       # number of StoreCondReq hits
system.cpu0.dcache.StoreCondReq_hits::total           24                       # number of StoreCondReq hits
system.cpu0.dcache.demand_hits::cpu0.data     13715786                       # number of demand (read+write) hits
system.cpu0.dcache.demand_hits::total        13715786                       # number of demand (read+write) hits
system.cpu0.dcache.overall_hits::cpu0.data     13715786                       # number of overall hits
system.cpu0.dcache.overall_hits::total       13715786                       # number of overall hits
system.cpu0.dcache.ReadReq_misses::cpu0.data          206                       # number of ReadReq misses
system.cpu0.dcache.ReadReq_misses::total          206                       # number of ReadReq misses
system.cpu0.dcache.WriteReq_misses::cpu0.data         2368                       # number of WriteReq misses
system.cpu0.dcache.WriteReq_misses::total         2368                       # number of WriteReq misses
system.cpu0.dcache.LoadLockedReq_misses::cpu0.data            3                       # number of LoadLockedReq misses
system.cpu0.dcache.LoadLockedReq_misses::total            3                       # number of LoadLockedReq misses
system.cpu0.dcache.StoreCondReq_misses::cpu0.data            1                       # number of StoreCondReq misses
system.cpu0.dcache.StoreCondReq_misses::total            1                       # number of StoreCondReq misses
system.cpu0.dcache.demand_misses::cpu0.data         2574                       # number of demand (read+write) misses
system.cpu0.dcache.demand_misses::total          2574                       # number of demand (read+write) misses
system.cpu0.dcache.overall_misses::cpu0.data         2574                       # number of overall misses
system.cpu0.dcache.overall_misses::total         2574                       # number of overall misses
system.cpu0.dcache.ReadReq_miss_latency::cpu0.data      9273993                       # number of ReadReq miss cycles
system.cpu0.dcache.ReadReq_miss_latency::total      9273993                       # number of ReadReq miss cycles
system.cpu0.dcache.WriteReq_miss_latency::cpu0.data    118620000                       # number of WriteReq miss cycles
system.cpu0.dcache.WriteReq_miss_latency::total    118620000                       # number of WriteReq miss cycles
system.cpu0.dcache.LoadLockedReq_miss_latency::cpu0.data       133500                       # number of LoadLockedReq miss cycles
system.cpu0.dcache.LoadLockedReq_miss_latency::total       133500                       # number of LoadLockedReq miss cycles
system.cpu0.dcache.StoreCondReq_miss_latency::cpu0.data         7500                       # number of StoreCondReq miss cycles
system.cpu0.dcache.StoreCondReq_miss_latency::total         7500                       # number of StoreCondReq miss cycles
system.cpu0.dcache.demand_miss_latency::cpu0.data    127893993                       # number of demand (read+write) miss cycles
system.cpu0.dcache.demand_miss_latency::total    127893993                       # number of demand (read+write) miss cycles
system.cpu0.dcache.overall_miss_latency::cpu0.data    127893993                       # number of overall miss cycles
system.cpu0.dcache.overall_miss_latency::total    127893993                       # number of overall miss cycles
system.cpu0.dcache.ReadReq_accesses::cpu0.data      6858429                       # number of ReadReq accesses(hits+misses)
system.cpu0.dcache.ReadReq_accesses::total      6858429                       # number of ReadReq accesses(hits+misses)
system.cpu0.dcache.WriteReq_accesses::cpu0.data      6859931                       # number of WriteReq accesses(hits+misses)
system.cpu0.dcache.WriteReq_accesses::total      6859931                       # number of WriteReq accesses(hits+misses)
system.cpu0.dcache.LoadLockedReq_accesses::cpu0.data           25                       # number of LoadLockedReq accesses(hits+misses)
system.cpu0.dcache.LoadLockedReq_accesses::total           25                       # number of LoadLockedReq accesses(hits+misses)
system.cpu0.dcache.StoreCondReq_accesses::cpu0.data           25                       # number of StoreCondReq accesses(hits+misses)
system.cpu0.dcache.StoreCondReq_accesses::total           25                       # number of StoreCondReq accesses(hits+misses)
system.cpu0.dcache.demand_accesses::cpu0.data     13718360                       # number of demand (read+write) accesses
system.cpu0.dcache.demand_accesses::total     13718360                       # number of demand (read+write) accesses
system.cpu0.dcache.overall_accesses::cpu0.data     13718360                       # number of overall (read+write) accesses
system.cpu0.dcache.overall_accesses::total     13718360                       # number of overall (read+write) accesses
system.cpu0.dcache.ReadReq_miss_rate::cpu0.data     0.000030                       # miss rate for ReadReq accesses
system.cpu0.dcache.ReadReq_miss_rate::total     0.000030                       # miss rate for ReadReq accesses
system.cpu0.dcache.WriteReq_miss_rate::cpu0.data     0.000345                       # miss rate for WriteReq accesses
system.cpu0.dcache.WriteReq_miss_rate::total     0.000345                       # miss rate for WriteReq accesses
system.cpu0.dcache.LoadLockedReq_miss_rate::cpu0.data     0.120000                       # miss rate for LoadLockedReq accesses
system.cpu0.dcache.LoadLockedReq_miss_rate::total     0.120000                       # miss rate for LoadLockedReq accesses
system.cpu0.dcache.StoreCondReq_miss_rate::cpu0.data     0.040000                       # miss rate for StoreCondReq accesses
system.cpu0.dcache.StoreCondReq_miss_rate::total     0.040000                       # miss rate for StoreCondReq accesses
system.cpu0.dcache.demand_miss_rate::cpu0.data     0.000188                       # miss rate for demand accesses
system.cpu0.dcache.demand_miss_rate::total     0.000188                       # miss rate for demand accesses
system.cpu0.dcache.overall_miss_rate::cpu0.data     0.000188                       # miss rate for overall accesses
system.cpu0.dcache.overall_miss_rate::total     0.000188                       # miss rate for overall accesses
system.cpu0.dcache.ReadReq_avg_miss_latency::cpu0.data 45019.383495                       # average ReadReq miss latency
system.cpu0.dcache.ReadReq_avg_miss_latency::total 45019.383495                       # average ReadReq miss latency
system.cpu0.dcache.WriteReq_avg_miss_latency::cpu0.data 50092.905405                       # average WriteReq miss latency
system.cpu0.dcache.WriteReq_avg_miss_latency::total 50092.905405                       # average WriteReq miss latency
system.cpu0.dcache.LoadLockedReq_avg_miss_latency::cpu0.data        44500                       # average LoadLockedReq miss latency
system.cpu0.dcache.LoadLockedReq_avg_miss_latency::total        44500                       # average LoadLockedReq miss latency
system.cpu0.dcache.StoreCondReq_avg_miss_latency::cpu0.data         7500                       # average StoreCondReq miss latency
system.cpu0.dcache.StoreCondReq_avg_miss_latency::total         7500                       # average StoreCondReq miss latency
system.cpu0.dcache.demand_avg_miss_latency::cpu0.data 49686.865967                       # average overall miss latency
system.cpu0.dcache.demand_avg_miss_latency::total 49686.865967                       # average overall miss latency
system.cpu0.dcache.overall_avg_miss_latency::cpu0.data 49686.865967                       # average overall miss latency
system.cpu0.dcache.overall_avg_miss_latency::total 49686.865967                       # average overall miss latency
system.cpu0.dcache.blocked_cycles::no_mshrs            0                       # number of cycles access was blocked
system.cpu0.dcache.blocked_cycles::no_targets            0                       # number of cycles access was blocked
system.cpu0.dcache.blocked::no_mshrs                0                       # number of cycles access was blocked
system.cpu0.dcache.blocked::no_targets              0                       # number of cycles access was blocked
system.cpu0.dcache.avg_blocked_cycles::no_mshrs          nan                       # average number of cycles each access was blocked
system.cpu0.dcache.avg_blocked_cycles::no_targets          nan                       # average number of cycles each access was blocked
system.cpu0.dcache.fast_writes                      0                       # number of fast writes performed
system.cpu0.dcache.cache_copies                     0                       # number of cache copies performed
system.cpu0.dcache.writebacks::writebacks           13                       # number of writebacks
system.cpu0.dcache.writebacks::total               13                       # number of writebacks
system.cpu0.dcache.ReadReq_mshr_hits::cpu0.data           71                       # number of ReadReq MSHR hits
system.cpu0.dcache.ReadReq_mshr_hits::total           71                       # number of ReadReq MSHR hits
system.cpu0.dcache.WriteReq_mshr_hits::cpu0.data         2186                       # number of WriteReq MSHR hits
system.cpu0.dcache.WriteReq_mshr_hits::total         2186                       # number of WriteReq MSHR hits
system.cpu0.dcache.LoadLockedReq_mshr_hits::cpu0.data            3                       # number of LoadLockedReq MSHR hits
system.cpu0.dcache.LoadLockedReq_mshr_hits::total            3                       # number of LoadLockedReq MSHR hits
system.cpu0.dcache.demand_mshr_hits::cpu0.data         2257                       # number of demand (read+write) MSHR hits
system.cpu0.dcache.demand_mshr_hits::total         2257                       # number of demand (read+write) MSHR hits
system.cpu0.dcache.overall_mshr_hits::cpu0.data         2257                       # number of overall MSHR hits
system.cpu0.dcache.overall_mshr_hits::total         2257                       # number of overall MSHR hits
system.cpu0.dcache.ReadReq_mshr_misses::cpu0.data          135                       # number of ReadReq MSHR misses
system.cpu0.dcache.ReadReq_mshr_misses::total          135                       # number of ReadReq MSHR misses
system.cpu0.dcache.WriteReq_mshr_misses::cpu0.data          182                       # number of WriteReq MSHR misses
system.cpu0.dcache.WriteReq_mshr_misses::total          182                       # number of WriteReq MSHR misses
system.cpu0.dcache.StoreCondReq_mshr_misses::cpu0.data            1                       # number of StoreCondReq MSHR misses
system.cpu0.dcache.StoreCondReq_mshr_misses::total            1                       # number of StoreCondReq MSHR misses
system.cpu0.dcache.demand_mshr_misses::cpu0.data          317                       # number of demand (read+write) MSHR misses
system.cpu0.dcache.demand_mshr_misses::total          317                       # number of demand (read+write) MSHR misses
system.cpu0.dcache.overall_mshr_misses::cpu0.data          317                       # number of overall MSHR misses
system.cpu0.dcache.overall_mshr_misses::total          317                       # number of overall MSHR misses
system.cpu0.dcache.ReadReq_mshr_miss_latency::cpu0.data      6049505                       # number of ReadReq MSHR miss cycles
system.cpu0.dcache.ReadReq_mshr_miss_latency::total      6049505                       # number of ReadReq MSHR miss cycles
system.cpu0.dcache.WriteReq_mshr_miss_latency::cpu0.data      9912500                       # number of WriteReq MSHR miss cycles
system.cpu0.dcache.WriteReq_mshr_miss_latency::total      9912500                       # number of WriteReq MSHR miss cycles
system.cpu0.dcache.StoreCondReq_mshr_miss_latency::cpu0.data         4500                       # number of StoreCondReq MSHR miss cycles
system.cpu0.dcache.StoreCondReq_mshr_miss_latency::total         4500                       # number of StoreCondReq MSHR miss cycles
system.cpu0.dcache.demand_mshr_miss_latency::cpu0.data     15962005                       # number of demand (read+write) MSHR miss cycles
system.cpu0.dcache.demand_mshr_miss_latency::total     15962005                       # number of demand (read+write) MSHR miss cycles
system.cpu0.dcache.overall_mshr_miss_latency::cpu0.data     15962005                       # number of overall MSHR miss cycles
system.cpu0.dcache.overall_mshr_miss_latency::total     15962005                       # number of overall MSHR miss cycles
system.cpu0.dcache.ReadReq_mshr_miss_rate::cpu0.data     0.000020                       # mshr miss rate for ReadReq accesses
system.cpu0.dcache.ReadReq_mshr_miss_rate::total     0.000020                       # mshr miss rate for ReadReq accesses
system.cpu0.dcache.WriteReq_mshr_miss_rate::cpu0.data     0.000027                       # mshr miss rate for WriteReq accesses
system.cpu0.dcache.WriteReq_mshr_miss_rate::total     0.000027                       # mshr miss rate for WriteReq accesses
system.cpu0.dcache.StoreCondReq_mshr_miss_rate::cpu0.data     0.040000                       # mshr miss rate for StoreCondReq accesses
system.cpu0.dcache.StoreCondReq_mshr_miss_rate::total     0.040000                       # mshr miss rate for StoreCondReq accesses
system.cpu0.dcache.demand_mshr_miss_rate::cpu0.data     0.000023                       # mshr miss rate for demand accesses
system.cpu0.dcache.demand_mshr_miss_rate::total     0.000023                       # mshr miss rate for demand accesses
system.cpu0.dcache.overall_mshr_miss_rate::cpu0.data     0.000023                       # mshr miss rate for overall accesses
system.cpu0.dcache.overall_mshr_miss_rate::total     0.000023                       # mshr miss rate for overall accesses
system.cpu0.dcache.ReadReq_avg_mshr_miss_latency::cpu0.data 44811.148148                       # average ReadReq mshr miss latency
system.cpu0.dcache.ReadReq_avg_mshr_miss_latency::total 44811.148148                       # average ReadReq mshr miss latency
system.cpu0.dcache.WriteReq_avg_mshr_miss_latency::cpu0.data 54464.285714                       # average WriteReq mshr miss latency
system.cpu0.dcache.WriteReq_avg_mshr_miss_latency::total 54464.285714                       # average WriteReq mshr miss latency
system.cpu0.dcache.StoreCondReq_avg_mshr_miss_latency::cpu0.data         4500                       # average StoreCondReq mshr miss latency
system.cpu0.dcache.StoreCondReq_avg_mshr_miss_latency::total         4500                       # average StoreCondReq mshr miss latency
system.cpu0.dcache.demand_avg_mshr_miss_latency::cpu0.data 50353.328076                       # average overall mshr miss latency
system.cpu0.dcache.demand_avg_mshr_miss_latency::total 50353.328076                       # average overall mshr miss latency
system.cpu0.dcache.overall_avg_mshr_miss_latency::cpu0.data 50353.328076                       # average overall mshr miss latency
system.cpu0.dcache.overall_avg_mshr_miss_latency::total 50353.328076                       # average overall mshr miss latency
system.cpu0.dcache.no_allocate_misses               0                       # Number of misses that were no-allocate
system.cpu0.icache.tags.replacements               65                       # number of replacements
system.cpu0.icache.tags.tagsinuse          285.773952                       # Cycle average of tags in use
system.cpu0.icache.tags.total_refs               1487                       # Total number of references to valid blocks.
system.cpu0.icache.tags.sampled_refs              381                       # Sample count of references to valid blocks.
system.cpu0.icache.tags.avg_refs             3.902887                       # Average number of references to valid blocks.
system.cpu0.icache.tags.warmup_cycle                0                       # Cycle when the warmup percentage was hit.
system.cpu0.icache.tags.occ_blocks::cpu0.inst   285.773952                       # Average occupied blocks per requestor
system.cpu0.icache.tags.occ_percent::cpu0.inst     0.558152                       # Average percentage of cache occupancy
system.cpu0.icache.tags.occ_percent::total     0.558152                       # Average percentage of cache occupancy
system.cpu0.icache.tags.occ_task_id_blocks::1024          316                       # Occupied blocks per task id
system.cpu0.icache.tags.age_task_id_blocks_1024::0           42                       # Occupied blocks per task id
system.cpu0.icache.tags.age_task_id_blocks_1024::4          274                       # Occupied blocks per task id
system.cpu0.icache.tags.occ_task_id_percent::1024     0.617188                       # Percentage of cache occupancy per task id
system.cpu0.icache.tags.tag_accesses             4237                       # Number of tag accesses
system.cpu0.icache.tags.data_accesses            4237                       # Number of data accesses
system.cpu0.icache.ReadReq_hits::cpu0.inst         1487                       # number of ReadReq hits
system.cpu0.icache.ReadReq_hits::total           1487                       # number of ReadReq hits
system.cpu0.icache.demand_hits::cpu0.inst         1487                       # number of demand (read+write) hits
system.cpu0.icache.demand_hits::total            1487                       # number of demand (read+write) hits
system.cpu0.icache.overall_hits::cpu0.inst         1487                       # number of overall hits
system.cpu0.icache.overall_hits::total           1487                       # number of overall hits
system.cpu0.icache.ReadReq_misses::cpu0.inst          441                       # number of ReadReq misses
system.cpu0.icache.ReadReq_misses::total          441                       # number of ReadReq misses
system.cpu0.icache.demand_misses::cpu0.inst          441                       # number of demand (read+write) misses
system.cpu0.icache.demand_misses::total           441                       # number of demand (read+write) misses
system.cpu0.icache.overall_misses::cpu0.inst          441                       # number of overall misses
system.cpu0.icache.overall_misses::total          441                       # number of overall misses
system.cpu0.icache.ReadReq_miss_latency::cpu0.inst     23082997                       # number of ReadReq miss cycles
system.cpu0.icache.ReadReq_miss_latency::total     23082997                       # number of ReadReq miss cycles
system.cpu0.icache.demand_miss_latency::cpu0.inst     23082997                       # number of demand (read+write) miss cycles
system.cpu0.icache.demand_miss_latency::total     23082997                       # number of demand (read+write) miss cycles
system.cpu0.icache.overall_miss_latency::cpu0.inst     23082997                       # number of overall miss cycles
system.cpu0.icache.overall_miss_latency::total     23082997                       # number of overall miss cycles
system.cpu0.icache.ReadReq_accesses::cpu0.inst         1928                       # number of ReadReq accesses(hits+misses)
system.cpu0.icache.ReadReq_accesses::total         1928                       # number of ReadReq accesses(hits+misses)
system.cpu0.icache.demand_accesses::cpu0.inst         1928                       # number of demand (read+write) accesses
system.cpu0.icache.demand_accesses::total         1928                       # number of demand (read+write) accesses
system.cpu0.icache.overall_accesses::cpu0.inst         1928                       # number of overall (read+write) accesses
system.cpu0.icache.overall_accesses::total         1928                       # number of overall (read+write) accesses
system.cpu0.icache.ReadReq_miss_rate::cpu0.inst     0.228734                       # miss rate for ReadReq accesses
system.cpu0.icache.ReadReq_miss_rate::total     0.228734                       # miss rate for ReadReq accesses
system.cpu0.icache.demand_miss_rate::cpu0.inst     0.228734                       # miss rate for demand accesses
system.cpu0.icache.demand_miss_rate::total     0.228734                       # miss rate for demand accesses
system.cpu0.icache.overall_miss_rate::cpu0.inst     0.228734                       # miss rate for overall accesses
system.cpu0.icache.overall_miss_rate::total     0.228734                       # miss rate for overall accesses
system.cpu0.icache.ReadReq_avg_miss_latency::cpu0.inst 52342.396825                       # average ReadReq miss latency
system.cpu0.icache.ReadReq_avg_miss_latency::total 52342.396825                       # average ReadReq miss latency
system.cpu0.icache.demand_avg_miss_latency::cpu0.inst 52342.396825                       # average overall miss latency
system.cpu0.icache.demand_avg_miss_latency::total 52342.396825                       # average overall miss latency
system.cpu0.icache.overall_avg_miss_latency::cpu0.inst 52342.396825                       # average overall miss latency
system.cpu0.icache.overall_avg_miss_latency::total 52342.396825                       # average overall miss latency
system.cpu0.icache.blocked_cycles::no_mshrs           11                       # number of cycles access was blocked
system.cpu0.icache.blocked_cycles::no_targets            0                       # number of cycles access was blocked
system.cpu0.icache.blocked::no_mshrs                1                       # number of cycles access was blocked
system.cpu0.icache.blocked::no_targets              0                       # number of cycles access was blocked
system.cpu0.icache.avg_blocked_cycles::no_mshrs           11                       # average number of cycles each access was blocked
system.cpu0.icache.avg_blocked_cycles::no_targets          nan                       # average number of cycles each access was blocked
system.cpu0.icache.fast_writes                      0                       # number of fast writes performed
system.cpu0.icache.cache_copies                     0                       # number of cache copies performed
system.cpu0.icache.ReadReq_mshr_hits::cpu0.inst           60                       # number of ReadReq MSHR hits
system.cpu0.icache.ReadReq_mshr_hits::total           60                       # number of ReadReq MSHR hits
system.cpu0.icache.demand_mshr_hits::cpu0.inst           60                       # number of demand (read+write) MSHR hits
system.cpu0.icache.demand_mshr_hits::total           60                       # number of demand (read+write) MSHR hits
system.cpu0.icache.overall_mshr_hits::cpu0.inst           60                       # number of overall MSHR hits
system.cpu0.icache.overall_mshr_hits::total           60                       # number of overall MSHR hits
system.cpu0.icache.ReadReq_mshr_misses::cpu0.inst          381                       # number of ReadReq MSHR misses
system.cpu0.icache.ReadReq_mshr_misses::total          381                       # number of ReadReq MSHR misses
system.cpu0.icache.demand_mshr_misses::cpu0.inst          381                       # number of demand (read+write) MSHR misses
[...]
system.l2.ReadReq_mshr_miss_latency::total     35479500                       # number of ReadReq MSHR miss cycles
system.l2.UpgradeReq_mshr_miss_latency::cpu1.data    436397428                       # number of UpgradeReq MSHR miss cycles
system.l2.UpgradeReq_mshr_miss_latency::cpu2.data    501164828                       # number of UpgradeReq MSHR miss cycles
system.l2.UpgradeReq_mshr_miss_latency::total    937562256                       # number of UpgradeReq MSHR miss cycles
system.l2.SCUpgradeReq_mshr_miss_latency::cpu1.data    278744210                       # number of SCUpgradeReq MSHR miss cycles
system.l2.SCUpgradeReq_mshr_miss_latency::cpu2.data    315385732                       # number of SCUpgradeReq MSHR miss cycles
system.l2.SCUpgradeReq_mshr_miss_latency::total    594129942                       # number of SCUpgradeReq MSHR miss cycles
system.l2.ReadExReq_mshr_miss_latency::cpu0.data      7302500                       # number of ReadExReq MSHR miss cycles
system.l2.ReadExReq_mshr_miss_latency::cpu1.data     12293500                       # number of ReadExReq MSHR miss cycles
system.l2.ReadExReq_mshr_miss_latency::cpu2.data     18228500                       # number of ReadExReq MSHR miss cycles
system.l2.ReadExReq_mshr_miss_latency::total     37824500                       # number of ReadExReq MSHR miss cycles
system.l2.demand_mshr_miss_latency::cpu0.inst     14399500                       # number of demand (read+write) MSHR miss cycles
system.l2.demand_mshr_miss_latency::cpu0.data     11314000                       # number of demand (read+write) MSHR miss cycles
system.l2.demand_mshr_miss_latency::cpu1.inst      7144000                       # number of demand (read+write) MSHR miss cycles
system.l2.demand_mshr_miss_latency::cpu1.data     15403500                       # number of demand (read+write) MSHR miss cycles
system.l2.demand_mshr_miss_latency::cpu2.inst      4077500                       # number of demand (read+write) MSHR miss cycles
system.l2.demand_mshr_miss_latency::cpu2.data     20965500                       # number of demand (read+write) MSHR miss cycles
system.l2.demand_mshr_miss_latency::total     73304000                       # number of demand (read+write) MSHR miss cycles
system.l2.overall_mshr_miss_latency::cpu0.inst     14399500                       # number of overall MSHR miss cycles
system.l2.overall_mshr_miss_latency::cpu0.data     11314000                       # number of overall MSHR miss cycles
system.l2.overall_mshr_miss_latency::cpu1.inst      7144000                       # number of overall MSHR miss cycles
system.l2.overall_mshr_miss_latency::cpu1.data     15403500                       # number of overall MSHR miss cycles
system.l2.overall_mshr_miss_latency::cpu2.inst      4077500                       # number of overall MSHR miss cycles
system.l2.overall_mshr_miss_latency::cpu2.data     20965500                       # number of overall MSHR miss cycles
system.l2.overall_mshr_miss_latency::total     73304000                       # number of overall MSHR miss cycles
system.l2.ReadReq_mshr_miss_rate::cpu0.inst     0.921260                       # mshr miss rate for ReadReq accesses
system.l2.ReadReq_mshr_miss_rate::cpu0.data     0.730769                       # mshr miss rate for ReadReq accesses
system.l2.ReadReq_mshr_miss_rate::cpu1.inst     0.181159                       # mshr miss rate for ReadReq accesses
system.l2.ReadReq_mshr_miss_rate::cpu1.data     0.005859                       # mshr miss rate for ReadReq accesses
system.l2.ReadReq_mshr_miss_rate::cpu2.inst     0.155763                       # mshr miss rate for ReadReq accesses
system.l2.ReadReq_mshr_miss_rate::cpu2.data     0.004127                       # mshr miss rate for ReadReq accesses
system.l2.ReadReq_mshr_miss_rate::total      0.027583                       # mshr miss rate for ReadReq accesses
system.l2.UpgradeReq_mshr_miss_rate::cpu1.data     0.999814                       # mshr miss rate for UpgradeReq accesses
system.l2.UpgradeReq_mshr_miss_rate::cpu2.data     0.999919                       # mshr miss rate for UpgradeReq accesses
system.l2.UpgradeReq_mshr_miss_rate::total     0.999827                       # mshr miss rate for UpgradeReq accesses
system.l2.SCUpgradeReq_mshr_miss_rate::cpu1.data     0.999709                       # mshr miss rate for SCUpgradeReq accesses
system.l2.SCUpgradeReq_mshr_miss_rate::cpu2.data     0.999872                       # mshr miss rate for SCUpgradeReq accesses
system.l2.SCUpgradeReq_mshr_miss_rate::total     0.999795                       # mshr miss rate for SCUpgradeReq accesses
system.l2.ReadExReq_mshr_miss_rate::cpu0.data            1                       # mshr miss rate for ReadExReq accesses
system.l2.ReadExReq_mshr_miss_rate::cpu1.data     0.990164                       # mshr miss rate for ReadExReq accesses
system.l2.ReadExReq_mshr_miss_rate::cpu2.data     0.929607                       # mshr miss rate for ReadExReq accesses
system.l2.ReadExReq_mshr_miss_rate::total     0.961737                       # mshr miss rate for ReadExReq accesses
system.l2.demand_mshr_miss_rate::cpu0.inst     0.921260                       # mshr miss rate for demand accesses
system.l2.demand_mshr_miss_rate::cpu0.data     0.886731                       # mshr miss rate for demand accesses
system.l2.demand_mshr_miss_rate::cpu1.inst     0.181159                       # mshr miss rate for demand accesses
system.l2.demand_mshr_miss_rate::cpu1.data     0.028470                       # mshr miss rate for demand accesses
system.l2.demand_mshr_miss_rate::cpu2.inst     0.155763                       # mshr miss rate for demand accesses
system.l2.demand_mshr_miss_rate::cpu2.data     0.030869                       # mshr miss rate for demand accesses
system.l2.demand_mshr_miss_rate::total       0.055557                       # mshr miss rate for demand accesses
system.l2.overall_mshr_miss_rate::cpu0.inst     0.921260                       # mshr miss rate for overall accesses
system.l2.overall_mshr_miss_rate::cpu0.data     0.886731                       # mshr miss rate for overall accesses
system.l2.overall_mshr_miss_rate::cpu1.inst     0.181159                       # mshr miss rate for overall accesses
system.l2.overall_mshr_miss_rate::cpu1.data     0.028470                       # mshr miss rate for overall accesses
system.l2.overall_mshr_miss_rate::cpu2.inst     0.155763                       # mshr miss rate for overall accesses
system.l2.overall_mshr_miss_rate::cpu2.data     0.030869                       # mshr miss rate for overall accesses
system.l2.overall_mshr_miss_rate::total      0.055557                       # mshr miss rate for overall accesses
system.l2.ReadReq_avg_mshr_miss_latency::cpu0.inst 41024.216524                       # average ReadReq mshr miss latency
system.l2.ReadReq_avg_mshr_miss_latency::cpu0.data 42226.315789                       # average ReadReq mshr miss latency
system.l2.ReadReq_avg_mshr_miss_latency::cpu1.inst 40822.857143                       # average ReadReq mshr miss latency
system.l2.ReadReq_avg_mshr_miss_latency::cpu1.data 40921.052632                       # average ReadReq mshr miss latency
system.l2.ReadReq_avg_mshr_miss_latency::cpu2.inst        40775                       # average ReadReq mshr miss latency
system.l2.ReadReq_avg_mshr_miss_latency::cpu2.data 40850.746269                       # average ReadReq mshr miss latency
system.l2.ReadReq_avg_mshr_miss_latency::total 41064.236111                       # average ReadReq mshr miss latency
system.l2.UpgradeReq_avg_mshr_miss_latency::cpu1.data 40549.844639                       # average UpgradeReq mshr miss latency
system.l2.UpgradeReq_avg_mshr_miss_latency::cpu2.data 40547.316181                       # average UpgradeReq mshr miss latency
system.l2.UpgradeReq_avg_mshr_miss_latency::total 40548.493037                       # average UpgradeReq mshr miss latency
system.l2.SCUpgradeReq_avg_mshr_miss_latency::cpu1.data 40521.036488                       # average SCUpgradeReq mshr miss latency
system.l2.SCUpgradeReq_avg_mshr_miss_latency::cpu2.data 40517.180370                       # average SCUpgradeReq mshr miss latency
system.l2.SCUpgradeReq_avg_mshr_miss_latency::total 40518.989429                       # average SCUpgradeReq mshr miss latency
system.l2.ReadExReq_avg_mshr_miss_latency::cpu0.data 40796.089385                       # average ReadExReq mshr miss latency
system.l2.ReadExReq_avg_mshr_miss_latency::cpu1.data 40706.953642                       # average ReadExReq mshr miss latency
system.l2.ReadExReq_avg_mshr_miss_latency::cpu2.data 40597.995546                       # average ReadExReq mshr miss latency
system.l2.ReadExReq_avg_mshr_miss_latency::total 40671.505376                       # average ReadExReq mshr miss latency
system.l2.demand_avg_mshr_miss_latency::cpu0.inst 41024.216524                       # average overall mshr miss latency
system.l2.demand_avg_mshr_miss_latency::cpu0.data 41291.970803                       # average overall mshr miss latency
system.l2.demand_avg_mshr_miss_latency::cpu1.inst 40822.857143                       # average overall mshr miss latency
system.l2.demand_avg_mshr_miss_latency::cpu1.data        40750                       # average overall mshr miss latency
system.l2.demand_avg_mshr_miss_latency::cpu2.inst        40775                       # average overall mshr miss latency
system.l2.demand_avg_mshr_miss_latency::cpu2.data 40630.813953                       # average overall mshr miss latency
system.l2.demand_avg_mshr_miss_latency::total 40860.646600                       # average overall mshr miss latency
system.l2.overall_avg_mshr_miss_latency::cpu0.inst 41024.216524                       # average overall mshr miss latency
system.l2.overall_avg_mshr_miss_latency::cpu0.data 41291.970803                       # average overall mshr miss latency
system.l2.overall_avg_mshr_miss_latency::cpu1.inst 40822.857143                       # average overall mshr miss latency
system.l2.overall_avg_mshr_miss_latency::cpu1.data        40750                       # average overall mshr miss latency
system.l2.overall_avg_mshr_miss_latency::cpu2.inst        40775                       # average overall mshr miss latency
system.l2.overall_avg_mshr_miss_latency::cpu2.data 40630.813953                       # average overall mshr miss latency
system.l2.overall_avg_mshr_miss_latency::total 40860.646600                       # average overall mshr miss latency
system.l2.no_allocate_misses                        0                       # Number of misses that were no-allocate
system.membus.trans_dist::ReadReq                 864                       # Transaction distribution
system.membus.trans_dist::ReadResp                864                       # Transaction distribution
system.membus.trans_dist::UpgradeReq            70911                       # Transaction distribution
system.membus.trans_dist::SCUpgradeReq          62177                       # Transaction distribution
system.membus.trans_dist::UpgradeResp           37785                       # Transaction distribution
system.membus.trans_dist::ReadExReq               930                       # Transaction distribution
system.membus.trans_dist::ReadExResp              930                       # Transaction distribution
system.membus.pkt_count_system.l2.mem_side::system.physmem.port       174461                       # Packet count per connected master and slave (bytes)
system.membus.pkt_count::total                 174461                       # Packet count per connected master and slave (bytes)
system.membus.pkt_size_system.l2.mem_side::system.physmem.port       114816                       # Cumulative packet size per connected master and slave (bytes)
system.membus.pkt_size::total                  114816                       # Cumulative packet size per connected master and slave (bytes)
system.membus.snoops                            95303                       # Total snoops (count)
system.membus.snoop_fanout::samples            135039                       # Request fanout histogram
system.membus.snoop_fanout::mean                    0                       # Request fanout histogram
system.membus.snoop_fanout::stdev                   0                       # Request fanout histogram
system.membus.snoop_fanout::underflows              0      0.00%      0.00% # Request fanout histogram
system.membus.snoop_fanout::0                  135039    100.00%    100.00% # Request fanout histogram
system.membus.snoop_fanout::1                       0      0.00%    100.00% # Request fanout histogram
system.membus.snoop_fanout::overflows               0      0.00%    100.00% # Request fanout histogram
system.membus.snoop_fanout::min_value               0                       # Request fanout histogram
system.membus.snoop_fanout::max_value               0                       # Request fanout histogram
system.membus.snoop_fanout::total              135039                       # Request fanout histogram
system.membus.reqLayer0.occupancy            58858709                       # Layer occupancy (ticks)
system.membus.reqLayer0.utilization               0.4                       # Layer utilization (%)
system.membus.respLayer1.occupancy           65736401                       # Layer occupancy (ticks)
system.membus.respLayer1.utilization              0.5                       # Layer utilization (%)
system.tol2bus.trans_dist::ReadReq             175334                       # Transaction distribution
system.tol2bus.trans_dist::ReadResp            175334                       # Transaction distribution
system.tol2bus.trans_dist::Writeback            13539                       # Transaction distribution
system.tol2bus.trans_dist::UpgradeReq           70915                       # Transaction distribution
system.tol2bus.trans_dist::SCUpgradeReq         62180                       # Transaction distribution
system.tol2bus.trans_dist::UpgradeResp         133095                       # Transaction distribution
system.tol2bus.trans_dist::SCUpgradeFailReq          113                       # Transaction distribution
system.tol2bus.trans_dist::UpgradeFailResp          113                       # Transaction distribution
system.tol2bus.trans_dist::ReadExReq             1042                       # Transaction distribution
system.tol2bus.trans_dist::ReadExResp            1042                       # Transaction distribution
system.tol2bus.pkt_count_system.cpu0.icache.mem_side::system.l2.cpu_side          762                       # Packet count per connected master and slave (bytes)
system.tol2bus.pkt_count_system.cpu0.dcache.mem_side::system.l2.cpu_side          641                       # Packet count per connected master and slave (bytes)
system.tol2bus.pkt_count_system.cpu1.icache.mem_side::system.l2.cpu_side         1932                       # Packet count per connected master and slave (bytes)
system.tol2bus.pkt_count_system.cpu1.dcache.mem_side::system.l2.cpu_side       188413                       # Packet count per connected master and slave (bytes)
system.tol2bus.pkt_count_system.cpu2.icache.mem_side::system.l2.cpu_side         1284                       # Packet count per connected master and slave (bytes)
system.tol2bus.pkt_count_system.cpu2.dcache.mem_side::system.l2.cpu_side       200174                       # Packet count per connected master and slave (bytes)
system.tol2bus.pkt_count::total                393206                       # Packet count per connected master and slave (bytes)
system.tol2bus.pkt_size_system.cpu0.icache.mem_side::system.l2.cpu_side        24384                       # Cumulative packet size per connected master and slave (bytes)
system.tol2bus.pkt_size_system.cpu0.dcache.mem_side::system.l2.cpu_side        20608                       # Cumulative packet size per connected master and slave (bytes)
system.tol2bus.pkt_size_system.cpu1.icache.mem_side::system.l2.cpu_side        61824                       # Cumulative packet size per connected master and slave (bytes)
system.tol2bus.pkt_size_system.cpu1.dcache.mem_side::system.l2.cpu_side      1213056                       # Cumulative packet size per connected master and slave (bytes)
system.tol2bus.pkt_size_system.cpu2.icache.mem_side::system.l2.cpu_side        41088                       # Cumulative packet size per connected master and slave (bytes)
system.tol2bus.pkt_size_system.cpu2.dcache.mem_side::system.l2.cpu_side      1572160                       # Cumulative packet size per connected master and slave (bytes)
system.tol2bus.pkt_size::total                2933120                       # Cumulative packet size per connected master and slave (bytes)
system.tol2bus.snoops                          239501                       # Total snoops (count)
system.tol2bus.snoop_fanout::samples           323123                       # Request fanout histogram
system.tol2bus.snoop_fanout::mean                   5                       # Request fanout histogram
system.tol2bus.snoop_fanout::stdev                  0                       # Request fanout histogram
system.tol2bus.snoop_fanout::underflows             0      0.00%      0.00% # Request fanout histogram
system.tol2bus.snoop_fanout::0                      0      0.00%      0.00% # Request fanout histogram
system.tol2bus.snoop_fanout::1                      0      0.00%      0.00% # Request fanout histogram
system.tol2bus.snoop_fanout::2                      0      0.00%      0.00% # Request fanout histogram
system.tol2bus.snoop_fanout::3                      0      0.00%      0.00% # Request fanout histogram
system.tol2bus.snoop_fanout::4                      0      0.00%      0.00% # Request fanout histogram
system.tol2bus.snoop_fanout::5                 323123    100.00%    100.00% # Request fanout histogram
system.tol2bus.snoop_fanout::6                      0      0.00%    100.00% # Request fanout histogram
system.tol2bus.snoop_fanout::overflows              0      0.00%    100.00% # Request fanout histogram
system.tol2bus.snoop_fanout::min_value              5                       # Request fanout histogram
system.tol2bus.snoop_fanout::max_value              5                       # Request fanout histogram
system.tol2bus.snoop_fanout::total             323123                       # Request fanout histogram
system.tol2bus.reqLayer0.occupancy          176101993                       # Layer occupancy (ticks)
system.tol2bus.reqLayer0.utilization              1.3                       # Layer utilization (%)
system.tol2bus.respLayer0.occupancy            572997                       # Layer occupancy (ticks)
system.tol2bus.respLayer0.utilization             0.0                       # Layer utilization (%)
system.tol2bus.respLayer1.occupancy            475995                       # Layer occupancy (ticks)
system.tol2bus.respLayer1.utilization             0.0                       # Layer utilization (%)
system.tol2bus.respLayer4.occupancy           1460976                       # Layer occupancy (ticks)
system.tol2bus.respLayer4.utilization             0.0                       # Layer utilization (%)
system.tol2bus.respLayer5.occupancy         162744164                       # Layer occupancy (ticks)
system.tol2bus.respLayer5.utilization             1.2                       # Layer utilization (%)
system.tol2bus.respLayer8.occupancy            993938                       # Layer occupancy (ticks)
system.tol2bus.respLayer8.utilization             0.0                       # Layer utilization (%)
system.tol2bus.respLayer9.occupancy         165784032                       # Layer occupancy (ticks)
system.tol2bus.respLayer9.utilization             1.2                       # Layer utilization (%)

---------- End Simulation Statistics   ----------
