
---------- Begin Simulation Statistics ----------
sim_seconds                                  0.040025                       # Number of seconds simulated
sim_ticks                                 40025284000                       # Number of ticks simulated
final_tick                                40025284000                       # Number of ticks from beginning of simulation (restored from checkpoints and never reset)
sim_freq                                 1000000000000                       # Frequency of simulated ticks
host_inst_rate                                 132827                       # Simulator instruction rate (inst/s)
host_op_rate                                   136532                       # Simulator op (including micro ops) rate (op/s)
host_tick_rate                               26107219                       # Simulator tick rate (ticks/s)
host_mem_usage                                 742620                       # Number of bytes of host memory used
host_seconds                                  1533.11                       # Real time elapsed on the host
sim_insts                                   203638650                       # Number of instructions simulated
sim_ops                                     209318154                       # Number of ops (including micro ops) simulated
system.voltage_domain.voltage                       1                       # Voltage in Volts
system.clk_domain.clock                          1000                       # Clock period in ticks
system.physmem.bytes_read::cpu0.inst            20736                       # Number of bytes read from this memory
system.physmem.bytes_read::cpu0.data            17664                       # Number of bytes read from this memory
system.physmem.bytes_read::cpu1.inst             2048                       # Number of bytes read from this memory
system.physmem.bytes_read::cpu1.data           740224                       # Number of bytes read from this memory
system.physmem.bytes_read::cpu2.inst             6080                       # Number of bytes read from this memory
system.physmem.bytes_read::cpu2.data           768128                       # Number of bytes read from this memory
system.physmem.bytes_read::cpu3.inst             3520                       # Number of bytes read from this memory
system.physmem.bytes_read::cpu3.data           714688                       # Number of bytes read from this memory
system.physmem.bytes_read::cpu4.inst             1088                       # Number of bytes read from this memory
system.physmem.bytes_read::cpu4.data           733760                       # Number of bytes read from this memory
system.physmem.bytes_read::cpu5.inst             1920                       # Number of bytes read from this memory
system.physmem.bytes_read::cpu5.data           677120                       # Number of bytes read from this memory
system.physmem.bytes_read::cpu6.inst              960                       # Number of bytes read from this memory
system.physmem.bytes_read::cpu6.data           744448                       # Number of bytes read from this memory
system.physmem.bytes_read::cpu7.inst             3456                       # Number of bytes read from this memory
system.physmem.bytes_read::cpu7.data           643648                       # Number of bytes read from this memory
system.physmem.bytes_read::cpu8.inst             4224                       # Number of bytes read from this memory
system.physmem.bytes_read::cpu8.data           673216                       # Number of bytes read from this memory
system.physmem.bytes_read::total              5756928                       # Number of bytes read from this memory
system.physmem.bytes_inst_read::cpu0.inst        20736                       # Number of instructions bytes read from this memory
system.physmem.bytes_inst_read::cpu1.inst         2048                       # Number of instructions bytes read from this memory
system.physmem.bytes_inst_read::cpu2.inst         6080                       # Number of instructions bytes read from this memory
system.physmem.bytes_inst_read::cpu3.inst         3520                       # Number of instructions bytes read from this memory
system.physmem.bytes_inst_read::cpu4.inst         1088                       # Number of instructions bytes read from this memory
system.physmem.bytes_inst_read::cpu5.inst         1920                       # Number of instructions bytes read from this memory
system.physmem.bytes_inst_read::cpu6.inst          960                       # Number of instructions bytes read from this memory
system.physmem.bytes_inst_read::cpu7.inst         3456                       # Number of instructions bytes read from this memory
system.physmem.bytes_inst_read::cpu8.inst         4224                       # Number of instructions bytes read from this memory
system.physmem.bytes_inst_read::total           44032                       # Number of instructions bytes read from this memory
system.physmem.bytes_written::writebacks       111552                       # Number of bytes written to this memory
system.physmem.bytes_written::total            111552                       # Number of bytes written to this memory
system.physmem.num_reads::cpu0.inst               324                       # Number of read requests responded to by this memory
system.physmem.num_reads::cpu0.data               276                       # Number of read requests responded to by this memory
system.physmem.num_reads::cpu1.inst                32                       # Number of read requests responded to by this memory
system.physmem.num_reads::cpu1.data             11566                       # Number of read requests responded to by this memory
system.physmem.num_reads::cpu2.inst                95                       # Number of read requests responded to by this memory
system.physmem.num_reads::cpu2.data             12002                       # Number of read requests responded to by this memory
system.physmem.num_reads::cpu3.inst                55                       # Number of read requests responded to by this memory
system.physmem.num_reads::cpu3.data             11167                       # Number of read requests responded to by this memory
system.physmem.num_reads::cpu4.inst                17                       # Number of read requests responded to by this memory
system.physmem.num_reads::cpu4.data             11465                       # Number of read requests responded to by this memory
system.physmem.num_reads::cpu5.inst                30                       # Number of read requests responded to by this memory
system.physmem.num_reads::cpu5.data             10580                       # Number of read requests responded to by this memory
system.physmem.num_reads::cpu6.inst                15                       # Number of read requests responded to by this memory
system.physmem.num_reads::cpu6.data             11632                       # Number of read requests responded to by this memory
system.physmem.num_reads::cpu7.inst                54                       # Number of read requests responded to by this memory
system.physmem.num_reads::cpu7.data             10057                       # Number of read requests responded to by this memory
system.physmem.num_reads::cpu8.inst                66                       # Number of read requests responded to by this memory
system.physmem.num_reads::cpu8.data             10519                       # Number of read requests responded to by this memory
system.physmem.num_reads::total                 89952                       # Number of read requests responded to by this memory
system.physmem.num_writes::writebacks            1743                       # Number of write requests responded to by this memory
system.physmem.num_writes::total                 1743                       # Number of write requests responded to by this memory
system.physmem.bw_read::cpu0.inst              518073                       # Total read bandwidth from this memory (bytes/s)
system.physmem.bw_read::cpu0.data              441321                       # Total read bandwidth from this memory (bytes/s)
system.physmem.bw_read::cpu1.inst               51168                       # Total read bandwidth from this memory (bytes/s)
system.physmem.bw_read::cpu1.data            18493910                       # Total read bandwidth from this memory (bytes/s)
system.physmem.bw_read::cpu2.inst              151904                       # Total read bandwidth from this memory (bytes/s)
system.physmem.bw_read::cpu2.data            19191069                       # Total read bandwidth from this memory (bytes/s)
system.physmem.bw_read::cpu3.inst               87944                       # Total read bandwidth from this memory (bytes/s)
system.physmem.bw_read::cpu3.data            17855913                       # Total read bandwidth from this memory (bytes/s)
system.physmem.bw_read::cpu4.inst               27183                       # Total read bandwidth from this memory (bytes/s)
system.physmem.bw_read::cpu4.data            18332412                       # Total read bandwidth from this memory (bytes/s)
system.physmem.bw_read::cpu5.inst               47970                       # Total read bandwidth from this memory (bytes/s)
system.physmem.bw_read::cpu5.data            16917307                       # Total read bandwidth from this memory (bytes/s)
system.physmem.bw_read::cpu6.inst               23985                       # Total read bandwidth from this memory (bytes/s)
system.physmem.bw_read::cpu6.data            18599443                       # Total read bandwidth from this memory (bytes/s)
system.physmem.bw_read::cpu7.inst               86345                       # Total read bandwidth from this memory (bytes/s)
system.physmem.bw_read::cpu7.data            16081035                       # Total read bandwidth from this memory (bytes/s)
system.physmem.bw_read::cpu8.inst              105533                       # Total read bandwidth from this memory (bytes/s)
system.physmem.bw_read::cpu8.data            16819768                       # Total read bandwidth from this memory (bytes/s)
system.physmem.bw_read::total               143832284                       # Total read bandwidth from this memory (bytes/s)
system.physmem.bw_inst_read::cpu0.inst         518073                       # Instruction read bandwidth from this memory (bytes/s)
system.physmem.bw_inst_read::cpu1.inst          51168                       # Instruction read bandwidth from this memory (bytes/s)
system.physmem.bw_inst_read::cpu2.inst         151904                       # Instruction read bandwidth from this memory (bytes/s)
system.physmem.bw_inst_read::cpu3.inst          87944                       # Instruction read bandwidth from this memory (bytes/s)
system.physmem.bw_inst_read::cpu4.inst          27183                       # Instruction read bandwidth from this memory (bytes/s)
system.physmem.bw_inst_read::cpu5.inst          47970                       # Instruction read bandwidth from this memory (bytes/s)
system.physmem.bw_inst_read::cpu6.inst          23985                       # Instruction read bandwidth from this memory (bytes/s)
system.physmem.bw_inst_read::cpu7.inst          86345                       # Instruction read bandwidth from this memory (bytes/s)
system.physmem.bw_inst_read::cpu8.inst         105533                       # Instruction read bandwidth from this memory (bytes/s)
system.physmem.bw_inst_read::total            1100105                       # Instruction read bandwidth from this memory (bytes/s)
system.physmem.bw_write::writebacks           2787038                       # Write bandwidth from this memory (bytes/s)
system.physmem.bw_write::total                2787038                       # Write bandwidth from this memory (bytes/s)
system.physmem.bw_total::writebacks           2787038                       # Total bandwidth to/from this memory (bytes/s)
system.physmem.bw_total::cpu0.inst             518073                       # Total bandwidth to/from this memory (bytes/s)
system.physmem.bw_total::cpu0.data             441321                       # Total bandwidth to/from this memory (bytes/s)
system.physmem.bw_total::cpu1.inst              51168                       # Total bandwidth to/from this memory (bytes/s)
system.physmem.bw_total::cpu1.data           18493910                       # Total bandwidth to/from this memory (bytes/s)
system.physmem.bw_total::cpu2.inst             151904                       # Total bandwidth to/from this memory (bytes/s)
system.physmem.bw_total::cpu2.data           19191069                       # Total bandwidth to/from this memory (bytes/s)
system.physmem.bw_total::cpu3.inst              87944                       # Total bandwidth to/from this memory (bytes/s)
system.physmem.bw_total::cpu3.data           17855913                       # Total bandwidth to/from this memory (bytes/s)
system.physmem.bw_total::cpu4.inst              27183                       # Total bandwidth to/from this memory (bytes/s)
system.physmem.bw_total::cpu4.data           18332412                       # Total bandwidth to/from this memory (bytes/s)
system.physmem.bw_total::cpu5.inst              47970                       # Total bandwidth to/from this memory (bytes/s)
system.physmem.bw_total::cpu5.data           16917307                       # Total bandwidth to/from this memory (bytes/s)
system.physmem.bw_total::cpu6.inst              23985                       # Total bandwidth to/from this memory (bytes/s)
system.physmem.bw_total::cpu6.data           18599443                       # Total bandwidth to/from this memory (bytes/s)
system.physmem.bw_total::cpu7.inst              86345                       # Total bandwidth to/from this memory (bytes/s)
system.physmem.bw_total::cpu7.data           16081035                       # Total bandwidth to/from this memory (bytes/s)
system.physmem.bw_total::cpu8.inst             105533                       # Total bandwidth to/from this memory (bytes/s)
system.physmem.bw_total::cpu8.data           16819768                       # Total bandwidth to/from this memory (bytes/s)
system.physmem.bw_total::total              146619322                       # Total bandwidth to/from this memory (bytes/s)
system.cpu0.branchPred.lookups               20001793                       # Number of BP lookups
system.cpu0.branchPred.condPredicted         20000689                       # Number of conditional branches predicted
system.cpu0.branchPred.condIncorrect              710                       # Number of conditional branches incorrect
system.cpu0.branchPred.BTBLookups            19999589                       # Number of BTB lookups
system.cpu0.branchPred.BTBHits               19999193                       # Number of BTB hits
system.cpu0.branchPred.BTBCorrect                   0                       # Number of correct BTB predictions (this stat may not work properly.
system.cpu0.branchPred.BTBHitPct            99.998020                       # BTB Hit Percentage
system.cpu0.branchPred.usedRAS                    423                       # Number of times the RAS was used to get a target.
system.cpu0.branchPred.RASInCorrect                51                       # Number of incorrect RAS predictions.
system.cpu0.dstage2_mmu.stage2_tlb.walker.walks            0                       # Table walker walks requested
system.cpu0.dstage2_mmu.stage2_tlb.walker.walkRequestOrigin_Requested::Data            0                       # Table walker requests started/completed, data/inst
system.cpu0.dstage2_mmu.stage2_tlb.walker.walkRequestOrigin_Requested::Inst            0                       # Table walker requests started/completed, data/inst
system.cpu0.dstage2_mmu.stage2_tlb.walker.walkRequestOrigin_Requested::total            0                       # Table walker requests started/completed, data/inst
system.cpu0.dstage2_mmu.stage2_tlb.walker.walkRequestOrigin_Completed::Data            0                       # Table walker requests started/completed, data/inst
system.cpu0.dstage2_mmu.stage2_tlb.walker.walkRequestOrigin_Completed::Inst            0                       # Table walker requests started/completed, data/inst
system.cpu0.dstage2_mmu.stage2_tlb.walker.walkRequestOrigin_Completed::total            0                       # Table walker requests started/completed, data/inst
system.cpu0.dstage2_mmu.stage2_tlb.walker.walkRequestOrigin::total            0                       # Table walker requests started/completed, data/inst
system.cpu0.dstage2_mmu.stage2_tlb.inst_hits            0                       # ITB inst hits
system.cpu0.dstage2_mmu.stage2_tlb.inst_misses            0                       # ITB inst misses
system.cpu0.dstage2_mmu.stage2_tlb.read_hits            0                       # DTB read hits
system.cpu0.dstage2_mmu.stage2_tlb.read_misses            0                       # DTB read misses
system.cpu0.dstage2_mmu.stage2_tlb.write_hits            0                       # DTB write hits
system.cpu0.dstage2_mmu.stage2_tlb.write_misses            0                       # DTB write misses
system.cpu0.dstage2_mmu.stage2_tlb.flush_tlb            0                       # Number of times complete TLB was flushed
system.cpu0.dstage2_mmu.stage2_tlb.flush_tlb_mva            0                       # Number of times TLB was flushed by MVA
system.cpu0.dstage2_mmu.stage2_tlb.flush_tlb_mva_asid            0                       # Number of times TLB was flushed by MVA & ASID
system.cpu0.dstage2_mmu.stage2_tlb.flush_tlb_asid            0                       # Number of times TLB was flushed by ASID
system.cpu0.dstage2_mmu.stage2_tlb.flush_entries            0                       # Number of entries that have been flushed from TLB
system.cpu0.dstage2_mmu.stage2_tlb.align_faults            0                       # Number of TLB faults due to alignment restrictions
system.cpu0.dstage2_mmu.stage2_tlb.prefetch_faults            0                       # Number of TLB faults due to prefetch
system.cpu0.dstage2_mmu.stage2_tlb.domain_faults            0                       # Number of TLB faults due to domain restrictions
system.cpu0.dstage2_mmu.stage2_tlb.perms_faults            0                       # Number of TLB faults due to permissions restrictions
system.cpu0.dstage2_mmu.stage2_tlb.read_accesses            0                       # DTB read accesses
system.cpu0.dstage2_mmu.stage2_tlb.write_accesses            0                       # DTB write accesses
system.cpu0.dstage2_mmu.stage2_tlb.inst_accesses            0                       # ITB inst accesses
system.cpu0.dstage2_mmu.stage2_tlb.hits             0                       # DTB hits
system.cpu0.dstage2_mmu.stage2_tlb.misses            0                       # DTB misses
system.cpu0.dstage2_mmu.stage2_tlb.accesses            0                       # DTB accesses
system.cpu0.dtb.walker.walks                        0                       # Table walker walks requested
system.cpu0.dtb.walker.walkRequestOrigin_Requested::Data            0                       # Table walker requests started/completed, data/inst
system.cpu0.dtb.walker.walkRequestOrigin_Requested::Inst            0                       # Table walker requests started/completed, data/inst
system.cpu0.dtb.walker.walkRequestOrigin_Requested::total            0                       # Table walker requests started/completed, data/inst
system.cpu0.dtb.walker.walkRequestOrigin_Completed::Data            0                       # Table walker requests started/completed, data/inst
system.cpu0.dtb.walker.walkRequestOrigin_Completed::Inst            0                       # Table walker requests started/completed, data/inst
system.cpu0.dtb.walker.walkRequestOrigin_Completed::total            0                       # Table walker requests started/completed, data/inst
system.cpu0.dtb.walker.walkRequestOrigin::total            0                       # Table walker requests started/completed, data/inst
system.cpu0.dtb.inst_hits                           0                       # ITB inst hits
system.cpu0.dtb.inst_misses                         0                       # ITB inst misses
system.cpu0.dtb.read_hits                           0                       # DTB read hits
system.cpu0.dtb.read_misses                         0                       # DTB read misses
system.cpu0.dtb.write_hits                          0                       # DTB write hits
system.cpu0.dtb.write_misses                        0                       # DTB write misses
system.cpu0.dtb.flush_tlb                           0                       # Number of times complete TLB was flushed
system.cpu0.dtb.flush_tlb_mva                       0                       # Number of times TLB was flushed by MVA
system.cpu0.dtb.flush_tlb_mva_asid                  0                       # Number of times TLB was flushed by MVA & ASID
system.cpu0.dtb.flush_tlb_asid                      0                       # Number of times TLB was flushed by ASID
system.cpu0.dtb.flush_entries                       0                       # Number of entries that have been flushed from TLB
system.cpu0.dtb.align_faults                        0                       # Number of TLB faults due to alignment restrictions
system.cpu0.dtb.prefetch_faults                     0                       # Number of TLB faults due to prefetch
system.cpu0.dtb.domain_faults                       0                       # Number of TLB faults due to domain restrictions
system.cpu0.dtb.perms_faults                        0                       # Number of TLB faults due to permissions restrictions
system.cpu0.dtb.read_accesses                       0                       # DTB read accesses
system.cpu0.dtb.write_accesses                      0                       # DTB write accesses
system.cpu0.dtb.inst_accesses                       0                       # ITB inst accesses
system.cpu0.dtb.hits                                0                       # DTB hits
system.cpu0.dtb.misses                              0                       # DTB misses
system.cpu0.dtb.accesses                            0                       # DTB accesses
system.cpu0.istage2_mmu.stage2_tlb.walker.walks            0                       # Table walker walks requested
system.cpu0.istage2_mmu.stage2_tlb.walker.walkRequestOrigin_Requested::Data            0                       # Table walker requests started/completed, data/inst
system.cpu0.istage2_mmu.stage2_tlb.walker.walkRequestOrigin_Requested::Inst            0                       # Table walker requests started/completed, data/inst
system.cpu0.istage2_mmu.stage2_tlb.walker.walkRequestOrigin_Requested::total            0                       # Table walker requests started/completed, data/inst
system.cpu0.istage2_mmu.stage2_tlb.walker.walkRequestOrigin_Completed::Data            0                       # Table walker requests started/completed, data/inst
system.cpu0.istage2_mmu.stage2_tlb.walker.walkRequestOrigin_Completed::Inst            0                       # Table walker requests started/completed, data/inst
system.cpu0.istage2_mmu.stage2_tlb.walker.walkRequestOrigin_Completed::total            0                       # Table walker requests started/completed, data/inst
system.cpu0.istage2_mmu.stage2_tlb.walker.walkRequestOrigin::total            0                       # Table walker requests started/completed, data/inst
system.cpu0.istage2_mmu.stage2_tlb.inst_hits            0                       # ITB inst hits
system.cpu0.istage2_mmu.stage2_tlb.inst_misses            0                       # ITB inst misses
system.cpu0.istage2_mmu.stage2_tlb.read_hits            0                       # DTB read hits
system.cpu0.istage2_mmu.stage2_tlb.read_misses            0                       # DTB read misses
system.cpu0.istage2_mmu.stage2_tlb.write_hits            0                       # DTB write hits
system.cpu0.istage2_mmu.stage2_tlb.write_misses            0                       # DTB write misses
system.cpu0.istage2_mmu.stage2_tlb.flush_tlb            0                       # Number of times complete TLB was flushed
system.cpu0.istage2_mmu.stage2_tlb.flush_tlb_mva            0                       # Number of times TLB was flushed by MVA
system.cpu0.istage2_mmu.stage2_tlb.flush_tlb_mva_asid            0                       # Number of times TLB was flushed by MVA & ASID
system.cpu0.istage2_mmu.stage2_tlb.flush_tlb_asid            0                       # Number of times TLB was flushed by ASID
system.cpu0.istage2_mmu.stage2_tlb.flush_entries            0                       # Number of entries that have been flushed from TLB
system.cpu0.istage2_mmu.stage2_tlb.align_faults            0                       # Number of TLB faults due to alignment restrictions
system.cpu0.istage2_mmu.stage2_tlb.prefetch_faults            0                       # Number of TLB faults due to prefetch
system.cpu0.istage2_mmu.stage2_tlb.domain_faults            0                       # Number of TLB faults due to domain restrictions
system.cpu0.istage2_mmu.stage2_tlb.perms_faults            0                       # Number of TLB faults due to permissions restrictions
system.cpu0.istage2_mmu.stage2_tlb.read_accesses            0                       # DTB read accesses
system.cpu0.istage2_mmu.stage2_tlb.write_accesses            0                       # DTB write accesses
system.cpu0.istage2_mmu.stage2_tlb.inst_accesses            0                       # ITB inst accesses
system.cpu0.istage2_mmu.stage2_tlb.hits             0                       # DTB hits
system.cpu0.istage2_mmu.stage2_tlb.misses            0                       # DTB misses
system.cpu0.istage2_mmu.stage2_tlb.accesses            0                       # DTB accesses
system.cpu0.itb.walker.walks                        0                       # Table walker walks requested
system.cpu0.itb.walker.walkRequestOrigin_Requested::Data            0                       # Table walker requests started/completed, data/inst
system.cpu0.itb.walker.walkRequestOrigin_Requested::Inst            0                       # Table walker requests started/completed, data/inst
system.cpu0.itb.walker.walkRequestOrigin_Requested::total            0                       # Table walker requests started/completed, data/inst
system.cpu0.itb.walker.walkRequestOrigin_Completed::Data            0                       # Table walker requests started/completed, data/inst
system.cpu0.itb.walker.walkRequestOrigin_Completed::Inst            0                       # Table walker requests started/completed, data/inst
system.cpu0.itb.walker.walkRequestOrigin_Completed::total            0                       # Table walker requests started/completed, data/inst
system.cpu0.itb.walker.walkRequestOrigin::total            0                       # Table walker requests started/completed, data/inst
system.cpu0.itb.inst_hits                           0                       # ITB inst hits
system.cpu0.itb.inst_misses                         0                       # ITB inst misses
system.cpu0.itb.read_hits                           0                       # DTB read hits
system.cpu0.itb.read_misses                         0                       # DTB read misses
system.cpu0.itb.write_hits                          0                       # DTB write hits
system.cpu0.itb.write_misses                        0                       # DTB write misses
system.cpu0.itb.flush_tlb                           0                       # Number of times complete TLB was flushed
system.cpu0.itb.flush_tlb_mva                       0                       # Number of times TLB was flushed by MVA
system.cpu0.itb.flush_tlb_mva_asid                  0                       # Number of times TLB was flushed by MVA & ASID
system.cpu0.itb.flush_tlb_asid                      0                       # Number of times TLB was flushed by ASID
system.cpu0.itb.flush_entries                       0                       # Number of entries that have been flushed from TLB
system.cpu0.itb.align_faults                        0                       # Number of TLB faults due to alignment restrictions
system.cpu0.itb.prefetch_faults                     0                       # Number of TLB faults due to prefetch
system.cpu0.itb.domain_faults                       0                       # Number of TLB faults due to domain restrictions
system.cpu0.itb.perms_faults                        0                       # Number of TLB faults due to permissions restrictions
system.cpu0.itb.read_accesses                       0                       # DTB read accesses
system.cpu0.itb.write_accesses                      0                       # DTB write accesses
system.cpu0.itb.inst_accesses                       0                       # ITB inst accesses
system.cpu0.itb.hits                                0                       # DTB hits
system.cpu0.itb.misses                              0                       # DTB misses
system.cpu0.itb.accesses                            0                       # DTB accesses
system.cpu0.workload.num_syscalls              384118                       # Number of system calls
system.cpu0.numCycles                        40025285                       # number of cpu cycles simulated
system.cpu0.numWorkItemsStarted                     0                       # number of work items this cpu started
system.cpu0.numWorkItemsCompleted                   0                       # number of work items this cpu completed
system.cpu0.fetch.icacheStallCycles              8011                       # Number of cycles fetch is stalled on an Icache miss
system.cpu0.fetch.Insts                     100010677                       # Number of instructions fetch has processed
system.cpu0.fetch.Branches                   20001793                       # Number of branches that fetch encountered
system.cpu0.fetch.predictedBranches          19999616                       # Number of branches that fetch has predicted taken
system.cpu0.fetch.Cycles                     40008715                       # Number of cycles fetch has run and was not squashing or blocked
system.cpu0.fetch.SquashCycles                   1650                       # Number of cycles fetch has spent squashing
system.cpu0.fetch.PendingTrapStallCycles          168                       # Number of stall cycles due to pending traps
system.cpu0.fetch.CacheLines                     2265                       # Number of cache lines fetched
system.cpu0.fetch.IcacheSquashes                  254                       # Number of outstanding Icache misses that were squashed
system.cpu0.fetch.rateDist::samples          40017719                       # Number of instructions fetched each cycle (Total)
system.cpu0.fetch.rateDist::mean             2.499288                       # Number of instructions fetched each cycle (Total)
system.cpu0.fetch.rateDist::stdev            0.501865                       # Number of instructions fetched each cycle (Total)
system.cpu0.fetch.rateDist::underflows              0      0.00%      0.00% # Number of instructions fetched each cycle (Total)
system.cpu0.fetch.rateDist::0                   12234      0.03%      0.03% # Number of instructions fetched each cycle (Total)
system.cpu0.fetch.rateDist::1                     701      0.00%      0.03% # Number of instructions fetched each cycle (Total)
system.cpu0.fetch.rateDist::2                19999250     49.98%     50.01% # Number of instructions fetched each cycle (Total)
system.cpu0.fetch.rateDist::3                20005534     49.99%    100.00% # Number of instructions fetched each cycle (Total)
system.cpu0.fetch.rateDist::overflows               0      0.00%    100.00% # Number of instructions fetched each cycle (Total)
system.cpu0.fetch.rateDist::min_value               0                       # Number of instructions fetched each cycle (Total)
system.cpu0.fetch.rateDist::max_value               3                       # Number of instructions fetched each cycle (Total)
system.cpu0.fetch.rateDist::total            40017719                       # Number of instructions fetched each cycle (Total)
system.cpu0.fetch.branchRate                 0.499729                       # Number of branch fetches per cycle
system.cpu0.fetch.rate                       2.498687                       # Number of inst fetches per cycle
system.cpu0.decode.IdleCycles                    7609                       # Number of cycles decode is idle
system.cpu0.decode.BlockedCycles                 5294                       # Number of cycles decode is blocked
system.cpu0.decode.RunCycles                 40003446                       # Number of cycles decode is running
system.cpu0.decode.UnblockCycles                  725                       # Number of cycles decode is unblocking
system.cpu0.decode.SquashCycles                   645                       # Number of cycles decode is squashing
system.cpu0.decode.BranchResolved                 407                       # Number of times decode resolved a branch
system.cpu0.decode.BranchMispred                  196                       # Number of times decode detected a branch misprediction
system.cpu0.decode.DecodedInsts             100012569                       # Number of instructions handled by decode
system.cpu0.decode.SquashedInsts                  434                       # Number of squashed instructions handled by decode
system.cpu0.rename.SquashCycles                   645                       # Number of cycles rename is squashing
system.cpu0.rename.IdleCycles                    8326                       # Number of cycles rename is idle
system.cpu0.rename.BlockCycles                    589                       # Number of cycles rename is blocking
system.cpu0.rename.serializeStallCycles          2348                       # count of cycles rename stalled for serializing inst
system.cpu0.rename.RunCycles                 40003362                       # Number of cycles rename is running
system.cpu0.rename.UnblockCycles                 2449                       # Number of cycles rename is unblocking
system.cpu0.rename.RenamedInsts             100011416                       # Number of instructions processed by rename
system.cpu0.rename.SQFullEvents                  2331                       # Number of times rename has blocked due to SQ full
system.cpu0.rename.RenamedOperands          100013200                       # Number of destination operands rename has renamed
system.cpu0.rename.RenameLookups            460057410                       # Number of register rename lookups that rename has made
system.cpu0.rename.int_rename_lookups       100017370                       # Number of integer rename lookups
system.cpu0.rename.fp_rename_lookups               16                       # Number of floating rename lookups
system.cpu0.rename.CommittedMaps            100004270                       # Number of HB maps that are committed
system.cpu0.rename.UndoneMaps                    8900                       # Number of HB maps that are undone due to squashing
system.cpu0.rename.serializingInsts                55                       # count of serializing insts renamed
system.cpu0.rename.tempSerializingInsts            54                       # count of temporary serializing insts renamed
system.cpu0.rename.skidInsts                     1146                       # count of insts added to the skid buffer
system.cpu0.memDep0.insertedLoads            39999378                       # Number of loads inserted to the mem dependence unit.
system.cpu0.memDep0.insertedStores           20002300                       # Number of stores inserted to the mem dependence unit.
system.cpu0.memDep0.conflictingLoads         19998086                       # Number of conflicting loads.
system.cpu0.memDep0.conflictingStores        19998043                       # Number of conflicting stores.
system.cpu0.iq.iqInstsAdded                 100009284                       # Number of instructions added to the IQ (excludes non-spec)
system.cpu0.iq.iqNonSpecInstsAdded                 75                       # Number of non-speculative instructions added to the IQ
system.cpu0.iq.iqInstsIssued                100006957                       # Number of instructions issued
system.cpu0.iq.iqSquashedInstsIssued              392                       # Number of squashed instructions issued
system.cpu0.iq.iqSquashedInstsExamined           5961                       # Number of squashed instructions iterated over during squash; mainly for profiling
system.cpu0.iq.iqSquashedOperandsExamined        14823                       # Number of squashed operands that are examined and possibly removed from graph
system.cpu0.iq.iqSquashedNonSpecRemoved             3                       # Number of squashed non-spec instructions that were removed
system.cpu0.iq.issued_per_cycle::samples     40017719                       # Number of insts issued each cycle
system.cpu0.iq.issued_per_cycle::mean        2.499067                       # Number of insts issued each cycle
system.cpu0.iq.issued_per_cycle::stdev       0.706334                       # Number of insts issued each cycle
system.cpu0.iq.issued_per_cycle::underflows            0      0.00%      0.00% # Number of insts issued each cycle
system.cpu0.iq.issued_per_cycle::0              13436      0.03%      0.03% # Number of insts issued each cycle
system.cpu0.iq.issued_per_cycle::1            4940072     12.34%     12.38% # Number of insts issued each cycle
system.cpu0.iq.issued_per_cycle::2           10125748     25.30%     37.68% # Number of insts issued each cycle
system.cpu0.iq.issued_per_cycle::3           24938463     62.32%    100.00% # Number of insts issued each cycle
system.cpu0.iq.issued_per_cycle::overflows            0      0.00%    100.00% # Number of insts issued each cycle
system.cpu0.iq.issued_per_cycle::min_value            0                       # Number of insts issued each cycle
system.cpu0.iq.issued_per_cycle::max_value            3                       # Number of insts issued each cycle
system.cpu0.iq.issued_per_cycle::total       40017719                       # Number of insts issued each cycle
system.cpu0.iq.fu_full::No_OpClass                  0                       # attempts to use FU when none available
system.cpu0.iq.fu_full::IntAlu                      0                       # attempts to use FU when none available
system.cpu0.iq.fu_full::IntMult                     0                       # attempts to use FU when none available
system.cpu0.iq.fu_full::IntDiv                      0                       # attempts to use FU when none available
system.cpu0.iq.fu_full::FloatAdd                    0                       # attempts to use FU when none available
system.cpu0.iq.fu_full::FloatCmp                    0                       # attempts to use FU when none available
system.cpu0.iq.fu_full::FloatCvt                    0                       # attempts to use FU when none available
system.cpu0.iq.fu_full::FloatMult                   0                       # attempts to use FU when none available
system.cpu0.iq.fu_full::FloatDiv                    0                       # attempts to use FU when none available
system.cpu0.iq.fu_full::FloatSqrt                   0                       # attempts to use FU when none available
system.cpu0.iq.fu_full::SimdAdd                     0                       # attempts to use FU when none available
system.cpu0.iq.fu_full::SimdAddAcc                  0                       # attempts to use FU when none available
system.cpu0.iq.fu_full::SimdAlu                     0                       # attempts to use FU when none available
system.cpu0.iq.fu_full::SimdCmp                     0                       # attempts to use FU when none available
system.cpu0.iq.fu_full::SimdCvt                     0                       # attempts to use FU when none available
system.cpu0.iq.fu_full::SimdMisc                    0                       # attempts to use FU when none available
system.cpu0.iq.fu_full::SimdMult                    0                       # attempts to use FU when none available
system.cpu0.iq.fu_full::SimdMultAcc                 0                       # attempts to use FU when none available
system.cpu0.iq.fu_full::SimdShift                   0                       # attempts to use FU when none available
system.cpu0.iq.fu_full::SimdShiftAcc                0                       # attempts to use FU when none available
system.cpu0.iq.fu_full::SimdSqrt                    0                       # attempts to use FU when none available
system.cpu0.iq.fu_full::SimdFloatAdd                0                       # attempts to use FU when none available
system.cpu0.iq.fu_full::SimdFloatAlu                0                       # attempts to use FU when none available
system.cpu0.iq.fu_full::SimdFloatCmp                0                       # attempts to use FU when none available
system.cpu0.iq.fu_full::SimdFloatCvt                0                       # attempts to use FU when none available
system.cpu0.iq.fu_full::SimdFloatDiv                0                       # attempts to use FU when none available
system.cpu0.iq.fu_full::SimdFloatMisc               0                       # attempts to use FU when none available
system.cpu0.iq.fu_full::SimdFloatMult               0                       # attempts to use FU when none available
system.cpu0.iq.fu_full::SimdFloatMultAcc            0                       # attempts to use FU when none available
system.cpu0.iq.fu_full::SimdFloatSqrt               0                       # attempts to use FU when none available
system.cpu0.iq.fu_full::MemRead                     0                       # attempts to use FU when none available
system.cpu0.iq.fu_full::MemWrite                    0                       # attempts to use FU when none available
system.cpu0.iq.fu_full::IprAccess                   0                       # attempts to use FU when none available
system.cpu0.iq.fu_full::InstPrefetch                0                       # attempts to use FU when none available
system.cpu0.iq.FU_type_0::No_OpClass                0      0.00%      0.00% # Type of FU issued
system.cpu0.iq.FU_type_0::IntAlu             40006023     40.00%     40.00% # Type of FU issued
system.cpu0.iq.FU_type_0::IntMult                   6      0.00%     40.00% # Type of FU issued
system.cpu0.iq.FU_type_0::IntDiv                    0      0.00%     40.00% # Type of FU issued
system.cpu0.iq.FU_type_0::FloatAdd                  0      0.00%     40.00% # Type of FU issued
system.cpu0.iq.FU_type_0::FloatCmp                  0      0.00%     40.00% # Type of FU issued
system.cpu0.iq.FU_type_0::FloatCvt                  0      0.00%     40.00% # Type of FU issued
system.cpu0.iq.FU_type_0::FloatMult                 0      0.00%     40.00% # Type of FU issued
system.cpu0.iq.FU_type_0::FloatDiv                  0      0.00%     40.00% # Type of FU issued
system.cpu0.iq.FU_type_0::FloatSqrt                 0      0.00%     40.00% # Type of FU issued
system.cpu0.iq.FU_type_0::SimdAdd                   0      0.00%     40.00% # Type of FU issued
system.cpu0.iq.FU_type_0::SimdAddAcc                0      0.00%     40.00% # Type of FU issued
system.cpu0.iq.FU_type_0::SimdAlu                   0      0.00%     40.00% # Type of FU issued
system.cpu0.iq.FU_type_0::SimdCmp                   0      0.00%     40.00% # Type of FU issued
system.cpu0.iq.FU_type_0::SimdCvt                   0      0.00%     40.00% # Type of FU issued
system.cpu0.iq.FU_type_0::SimdMisc                  0      0.00%     40.00% # Type of FU issued
system.cpu0.iq.FU_type_0::SimdMult                  0      0.00%     40.00% # Type of FU issued
system.cpu0.iq.FU_type_0::SimdMultAcc               0      0.00%     40.00% # Type of FU issued
system.cpu0.iq.FU_type_0::SimdShift                 0      0.00%     40.00% # Type of FU issued
system.cpu0.iq.FU_type_0::SimdShiftAcc              0      0.00%     40.00% # Type of FU issued
system.cpu0.iq.FU_type_0::SimdSqrt                  0      0.00%     40.00% # Type of FU issued
system.cpu0.iq.FU_type_0::SimdFloatAdd              0      0.00%     40.00% # Type of FU issued
system.cpu0.iq.FU_type_0::SimdFloatAlu              0      0.00%     40.00% # Type of FU issued
system.cpu0.iq.FU_type_0::SimdFloatCmp              0      0.00%     40.00% # Type of FU issued
system.cpu0.iq.FU_type_0::SimdFloatCvt              0      0.00%     40.00% # Type of FU issued
system.cpu0.iq.FU_type_0::SimdFloatDiv              0      0.00%     40.00% # Type of FU issued
system.cpu0.iq.FU_type_0::SimdFloatMisc             3      0.00%     40.00% # Type of FU issued
system.cpu0.iq.FU_type_0::SimdFloatMult             0      0.00%     40.00% # Type of FU issued
system.cpu0.iq.FU_type_0::SimdFloatMultAcc            0      0.00%     40.00% # Type of FU issued
system.cpu0.iq.FU_type_0::SimdFloatSqrt             0      0.00%     40.00% # Type of FU issued
system.cpu0.iq.FU_type_0::MemRead            39998946     40.00%     80.00% # Type of FU issued
system.cpu0.iq.FU_type_0::MemWrite           20001979     20.00%    100.00% # Type of FU issued
system.cpu0.iq.FU_type_0::IprAccess                 0      0.00%    100.00% # Type of FU issued
system.cpu0.iq.FU_type_0::InstPrefetch              0      0.00%    100.00% # Type of FU issued
system.cpu0.iq.FU_type_0::total             100006957                       # Type of FU issued
system.cpu0.iq.rate                          2.498595                       # Inst issue rate
system.cpu0.iq.fu_busy_cnt                          0                       # FU busy when requested
system.cpu0.iq.fu_busy_rate                         0                       # FU busy rate (busy events/executed inst)
system.cpu0.iq.int_inst_queue_reads         240031990                       # Number of integer instruction queue reads
system.cpu0.iq.int_inst_queue_writes        100015395                       # Number of integer instruction queue writes
system.cpu0.iq.int_inst_queue_wakeup_accesses    100005789                       # Number of integer instruction queue wakeup accesses
system.cpu0.iq.fp_inst_queue_reads                 32                       # Number of floating instruction queue reads
system.cpu0.iq.fp_inst_queue_writes                16                       # Number of floating instruction queue writes
system.cpu0.iq.fp_inst_queue_wakeup_accesses           16                       # Number of floating instruction queue wakeup accesses
system.cpu0.iq.int_alu_accesses             100006941                       # Number of integer alu accesses
system.cpu0.iq.fp_alu_accesses                     16                       # Number of floating point alu accesses
system.cpu0.iew.lsq.thread0.forwLoads        19998264                       # Number of loads that had data forwarded from stores
system.cpu0.iew.lsq.thread0.invAddrLoads            0                       # Number of loads ignored due to an invalid address
system.cpu0.iew.lsq.thread0.squashedLoads         1596                       # Number of loads squashed
system.cpu0.iew.lsq.thread0.ignoredResponses            1                       # Number of memory responses ignored because the instruction is squashed
system.cpu0.iew.lsq.thread0.memOrderViolation           91                       # Number of memory ordering violations
system.cpu0.iew.lsq.thread0.squashedStores          631                       # Number of stores squashed
system.cpu0.iew.lsq.thread0.invAddrSwpfs            0                       # Number of software prefetches ignored due to an invalid address
system.cpu0.iew.lsq.thread0.blockedLoads            0                       # Number of blocked loads due to partial load-store forwarding
system.cpu0.iew.lsq.thread0.rescheduledLoads            5                       # Number of loads that were rescheduled
system.cpu0.iew.lsq.thread0.cacheBlocked            0                       # Number of times an access to memory failed due to the cache being blocked
system.cpu0.iew.iewIdleCycles                       0                       # Number of cycles IEW is idle
system.cpu0.iew.iewSquashCycles                   645                       # Number of cycles IEW is squashing
system.cpu0.iew.iewBlockCycles                    464                       # Number of cycles IEW is blocking
system.cpu0.iew.iewUnblockCycles                  128                       # Number of cycles IEW is unblocking
system.cpu0.iew.iewDispatchedInsts          100009378                       # Number of instructions dispatched to IQ
system.cpu0.iew.iewDispSquashedInsts              374                       # Number of squashed instructions skipped by dispatch
system.cpu0.iew.iewDispLoadInsts             39999378                       # Number of dispatched load instructions
system.cpu0.iew.iewDispStoreInsts            20002300                       # Number of dispatched store instructions
system.cpu0.iew.iewDispNonSpecInsts                51                       # Number of dispatched non-speculative instructions
system.cpu0.iew.iewIQFullEvents                     2                       # Number of times the IQ has become full, causing a stall
system.cpu0.iew.iewLSQFullEvents                    4                       # Number of times the LSQ has become full, causing a stall
system.cpu0.iew.memOrderViolationEvents            91                       # Number of memory order violations
system.cpu0.iew.predictedTakenIncorrect            71                       # Number of branches that were predicted taken incorrectly
system.cpu0.iew.predictedNotTakenIncorrect          481                       # Number of branches that were predicted not taken incorrectly
system.cpu0.iew.branchMispredicts                 552                       # Number of branch mispredicts detected at execute
system.cpu0.iew.iewExecutedInsts            100006220                       # Number of executed instructions
system.cpu0.iew.iewExecLoadInsts             39998742                       # Number of load instructions executed
system.cpu0.iew.iewExecSquashedInsts              734                       # Number of squashed instructions skipped in execute
system.cpu0.iew.exec_swp                            0                       # number of swp insts executed
system.cpu0.iew.exec_nop                           19                       # number of nop insts executed
system.cpu0.iew.exec_refs                    60000571                       # number of memory reference insts executed
system.cpu0.iew.exec_branches                20000195                       # Number of branches executed
system.cpu0.iew.exec_stores                  20001829                       # Number of stores executed
system.cpu0.iew.exec_rate                    2.498576                       # Inst execution rate
system.cpu0.iew.wb_sent                     100005916                       # cumulative count of insts sent to commit
system.cpu0.iew.wb_count                    100005805                       # cumulative count of insts written-back
system.cpu0.iew.wb_producers                 60001212                       # num instructions producing a value
system.cpu0.iew.wb_consumers                 60011751                       # num instructions consuming a value
system.cpu0.iew.wb_penalized                        0                       # number of instrctions required to write to 'other' IQ
system.cpu0.iew.wb_rate                      2.498566                       # insts written-back per cycle
system.cpu0.iew.wb_fanout                    0.999824                       # average fanout of values written-back
system.cpu0.iew.wb_penalized_rate                   0                       # fraction of instructions written-back that wrote to 'other' IQ
system.cpu0.commit.commitSquashedInsts           5980                       # The number of squashed insts skipped by commit
system.cpu0.commit.commitNonSpecStalls             72                       # The number of times commit has been forced to stall to communicate backwards
system.cpu0.commit.branchMispredicts              530                       # The number of times a branch was mispredicted
system.cpu0.commit.committed_per_cycle::samples     40016629                       # Number of insts commited each cycle
system.cpu0.commit.committed_per_cycle::mean     2.499045                       # Number of insts commited each cycle
system.cpu0.commit.committed_per_cycle::stdev     1.580562                       # Number of insts commited each cycle
system.cpu0.commit.committed_per_cycle::underflows            0      0.00%      0.00% # Number of insts commited each cycle
system.cpu0.commit.committed_per_cycle::0        14488      0.04%      0.04% # Number of insts commited each cycle
system.cpu0.commit.committed_per_cycle::1     20000607     49.98%     50.02% # Number of insts commited each cycle
system.cpu0.commit.committed_per_cycle::2         1242      0.00%     50.02% # Number of insts commited each cycle
system.cpu0.commit.committed_per_cycle::3      4938771     12.34%     62.36% # Number of insts commited each cycle
system.cpu0.commit.committed_per_cycle::4     10124173     25.30%     87.66% # Number of insts commited each cycle
system.cpu0.commit.committed_per_cycle::5      4937076     12.34%    100.00% # Number of insts commited each cycle
system.cpu0.commit.committed_per_cycle::6           88      0.00%    100.00% # Number of insts commited each cycle
system.cpu0.commit.committed_per_cycle::7          102      0.00%    100.00% # Number of insts commited each cycle
system.cpu0.commit.committed_per_cycle::8           82      0.00%    100.00% # Number of insts commited each cycle
system.cpu0.commit.committed_per_cycle::overflows            0      0.00%    100.00% # Number of insts commited each cycle
system.cpu0.commit.committed_per_cycle::min_value            0                       # Number of insts commited each cycle
system.cpu0.commit.committed_per_cycle::max_value            8                       # Number of insts commited each cycle
system.cpu0.commit.committed_per_cycle::total     40016629                       # Number of insts commited each cycle
system.cpu0.commit.committedInsts           100000000                       # Number of instructions committed
system.cpu0.commit.committedOps             100003374                       # Number of ops (including micro ops) committed
system.cpu0.commit.swp_count                        0                       # Number of s/w prefetches committed
system.cpu0.commit.refs                      59999436                       # Number of memory references committed
system.cpu0.commit.loads                     39997772                       # Number of loads committed
system.cpu0.commit.membars                         24                       # Number of memory barriers committed
system.cpu0.commit.branches                  19999755                       # Number of branches committed
system.cpu0.commit.fp_insts                        16                       # Number of committed floating point instructions.
system.cpu0.commit.int_insts                 80003998                       # Number of committed integer instructions.
system.cpu0.commit.function_calls                 150                       # Number of function calls committed.
system.cpu0.commit.op_class_0::No_OpClass            0      0.00%      0.00% # Class of committed instruction
system.cpu0.commit.op_class_0::IntAlu        40003929     40.00%     40.00% # Class of committed instruction
system.cpu0.commit.op_class_0::IntMult              6      0.00%     40.00% # Class of committed instruction
system.cpu0.commit.op_class_0::IntDiv               0      0.00%     40.00% # Class of committed instruction
system.cpu0.commit.op_class_0::FloatAdd             0      0.00%     40.00% # Class of committed instruction
system.cpu0.commit.op_class_0::FloatCmp             0      0.00%     40.00% # Class of committed instruction
system.cpu0.commit.op_class_0::FloatCvt             0      0.00%     40.00% # Class of committed instruction
system.cpu0.commit.op_class_0::FloatMult            0      0.00%     40.00% # Class of committed instruction
system.cpu0.commit.op_class_0::FloatDiv             0      0.00%     40.00% # Class of committed instruction
system.cpu0.commit.op_class_0::FloatSqrt            0      0.00%     40.00% # Class of committed instruction
system.cpu0.commit.op_class_0::SimdAdd              0      0.00%     40.00% # Class of committed instruction
system.cpu0.commit.op_class_0::SimdAddAcc            0      0.00%     40.00% # Class of committed instruction
system.cpu0.commit.op_class_0::SimdAlu              0      0.00%     40.00% # Class of committed instruction
system.cpu0.commit.op_class_0::SimdCmp              0      0.00%     40.00% # Class of committed instruction
system.cpu0.commit.op_class_0::SimdCvt              0      0.00%     40.00% # Class of committed instruction
system.cpu0.commit.op_class_0::SimdMisc             0      0.00%     40.00% # Class of committed instruction
system.cpu0.commit.op_class_0::SimdMult             0      0.00%     40.00% # Class of committed instruction
system.cpu0.commit.op_class_0::SimdMultAcc            0      0.00%     40.00% # Class of committed instruction
system.cpu0.commit.op_class_0::SimdShift            0      0.00%     40.00% # Class of committed instruction
system.cpu0.commit.op_class_0::SimdShiftAcc            0      0.00%     40.00% # Class of committed instruction
system.cpu0.commit.op_class_0::SimdSqrt             0      0.00%     40.00% # Class of committed instruction
system.cpu0.commit.op_class_0::SimdFloatAdd            0      0.00%     40.00% # Class of committed instruction
system.cpu0.commit.op_class_0::SimdFloatAlu            0      0.00%     40.00% # Class of committed instruction
system.cpu0.commit.op_class_0::SimdFloatCmp            0      0.00%     40.00% # Class of committed instruction
system.cpu0.commit.op_class_0::SimdFloatCvt            0      0.00%     40.00% # Class of committed instruction
system.cpu0.commit.op_class_0::SimdFloatDiv            0      0.00%     40.00% # Class of committed instruction
system.cpu0.commit.op_class_0::SimdFloatMisc            3      0.00%     40.00% # Class of committed instruction
system.cpu0.commit.op_class_0::SimdFloatMult            0      0.00%     40.00% # Class of committed instruction
system.cpu0.commit.op_class_0::SimdFloatMultAcc            0      0.00%     40.00% # Class of committed instruction
system.cpu0.commit.op_class_0::SimdFloatSqrt            0      0.00%     40.00% # Class of committed instruction
system.cpu0.commit.op_class_0::MemRead       39997772     40.00%     80.00% # Class of committed instruction
system.cpu0.commit.op_class_0::MemWrite      20001664     20.00%    100.00% # Class of committed instruction
system.cpu0.commit.op_class_0::IprAccess            0      0.00%    100.00% # Class of committed instruction
system.cpu0.commit.op_class_0::InstPrefetch            0      0.00%    100.00% # Class of committed instruction
system.cpu0.commit.op_class_0::total        100003374                       # Class of committed instruction
system.cpu0.commit.bw_lim_events                   82                       # number cycles where commit BW limit reached
system.cpu0.rob.rob_reads                   140025588                       # The number of ROB reads
system.cpu0.rob.rob_writes                  200019827                       # The number of ROB writes
system.cpu0.timesIdled                            223                       # Number of times that the entire CPU went into an idle state and unscheduled itself
system.cpu0.idleCycles                           7566                       # Total number of cycles that the CPU has spent unscheduled due to idling
system.cpu0.committedInsts                  100000000                       # Number of Instructions Simulated
system.cpu0.committedOps                    100003374                       # Number of Ops (including micro ops) Simulated
system.cpu0.cpi                              0.400253                       # CPI: Cycles Per Instruction
system.cpu0.cpi_total                        0.400253                       # CPI: Total CPI of All Threads
system.cpu0.ipc                              2.498421                       # IPC: Instructions Per Cycle
system.cpu0.ipc_total                        2.498421                       # IPC: Total IPC of All Threads
system.cpu0.int_regfile_reads               100009133                       # number of integer regfile reads
system.cpu0.int_regfile_writes               40004939                       # number of integer regfile writes
system.cpu0.fp_regfile_reads                     1296                       # number of floating regfile reads
system.cpu0.cc_regfile_reads                420013644                       # number of cc regfile reads
system.cpu0.cc_regfile_writes                60001984                       # number of cc regfile writes
system.cpu0.misc_regfile_reads               61205415                       # number of misc regfile reads
system.cpu0.misc_regfile_writes                    50                       # number of misc regfile writes
system.cpu0.dcache.tags.replacements               33                       # number of replacements
system.cpu0.dcache.tags.tagsinuse          124.394084                       # Cycle average of tags in use
system.cpu0.dcache.tags.total_refs           39998817                       # Total number of references to valid blocks.
system.cpu0.dcache.tags.sampled_refs              155                       # Sample count of references to valid blocks.
system.cpu0.dcache.tags.avg_refs         258056.883871                       # Average number of references to valid blocks.
system.cpu0.dcache.tags.warmup_cycle                0                       # Cycle when the warmup percentage was hit.
system.cpu0.dcache.tags.occ_blocks::cpu0.data   124.394084                       # Average occupied blocks per requestor
system.cpu0.dcache.tags.occ_percent::cpu0.data     0.242957                       # Average percentage of cache occupancy
system.cpu0.dcache.tags.occ_percent::total     0.242957                       # Average percentage of cache occupancy
system.cpu0.dcache.tags.occ_task_id_blocks::1024          122                       # Occupied blocks per task id
system.cpu0.dcache.tags.age_task_id_blocks_1024::4          122                       # Occupied blocks per task id
system.cpu0.dcache.tags.occ_task_id_percent::1024     0.238281                       # Percentage of cache occupancy per task id
system.cpu0.dcache.tags.tag_accesses         80004167                       # Number of tag accesses
system.cpu0.dcache.tags.data_accesses        80004167                       # Number of data accesses
system.cpu0.dcache.ReadReq_hits::cpu0.data     20000122                       # number of ReadReq hits
system.cpu0.dcache.ReadReq_hits::total       20000122                       # number of ReadReq hits
system.cpu0.dcache.WriteReq_hits::cpu0.data     19999184                       # number of WriteReq hits
system.cpu0.dcache.WriteReq_hits::total      19999184                       # number of WriteReq hits
system.cpu0.dcache.LoadLockedReq_hits::cpu0.data           20                       # number of LoadLockedReq hits
system.cpu0.dcache.LoadLockedReq_hits::total           20                       # number of LoadLockedReq hits
system.cpu0.dcache.StoreCondReq_hits::cpu0.data           23                       # number of StoreCondReq hits
system.cpu0.dcache.StoreCondReq_hits::total           23                       # number of StoreCondReq hits
system.cpu0.dcache.demand_hits::cpu0.data     39999306                       # number of demand (read+write) hits
system.cpu0.dcache.demand_hits::total        39999306                       # number of demand (read+write) hits
system.cpu0.dcache.overall_hits::cpu0.data     39999306                       # number of overall hits
system.cpu0.dcache.overall_hits::total       39999306                       # number of overall hits
system.cpu0.dcache.ReadReq_misses::cpu0.data          165                       # number of ReadReq misses
system.cpu0.dcache.ReadReq_misses::total          165                       # number of ReadReq misses
system.cpu0.dcache.WriteReq_misses::cpu0.data         2414                       # number of WriteReq misses
system.cpu0.dcache.WriteReq_misses::total         2414                       # number of WriteReq misses
system.cpu0.dcache.LoadLockedReq_misses::cpu0.data            3                       # number of LoadLockedReq misses
system.cpu0.dcache.LoadLockedReq_misses::total            3                       # number of LoadLockedReq misses
system.cpu0.dcache.demand_misses::cpu0.data         2579                       # number of demand (read+write) misses
system.cpu0.dcache.demand_misses::total          2579                       # number of demand (read+write) misses
system.cpu0.dcache.overall_misses::cpu0.data         2579                       # number of overall misses
system.cpu0.dcache.overall_misses::total         2579                       # number of overall misses
system.cpu0.dcache.ReadReq_miss_latency::cpu0.data      7873490                       # number of ReadReq miss cycles
system.cpu0.dcache.ReadReq_miss_latency::total      7873490                       # number of ReadReq miss cycles
system.cpu0.dcache.WriteReq_miss_latency::cpu0.data    118394000                       # number of WriteReq miss cycles
system.cpu0.dcache.WriteReq_miss_latency::total    118394000                       # number of WriteReq miss cycles
system.cpu0.dcache.LoadLockedReq_miss_latency::cpu0.data       133500                       # number of LoadLockedReq miss cycles
system.cpu0.dcache.LoadLockedReq_miss_latency::total       133500                       # number of LoadLockedReq miss cycles
system.cpu0.dcache.demand_miss_latency::cpu0.data    126267490                       # number of demand (read+write) miss cycles
system.cpu0.dcache.demand_miss_latency::total    126267490                       # number of demand (read+write) miss cycles
system.cpu0.dcache.overall_miss_latency::cpu0.data    126267490                       # number of overall miss cycles
system.cpu0.dcache.overall_miss_latency::total    126267490                       # number of overall miss cycles
system.cpu0.dcache.ReadReq_accesses::cpu0.data     20000287                       # number of ReadReq accesses(hits+misses)
system.cpu0.dcache.ReadReq_accesses::total     20000287                       # number of ReadReq accesses(hits+misses)
system.cpu0.dcache.WriteReq_accesses::cpu0.data     20001598                       # number of WriteReq accesses(hits+misses)
system.cpu0.dcache.WriteReq_accesses::total     20001598                       # number of WriteReq accesses(hits+misses)
system.cpu0.dcache.LoadLockedReq_accesses::cpu0.data           23                       # number of LoadLockedReq accesses(hits+misses)
system.cpu0.dcache.LoadLockedReq_accesses::total           23                       # number of LoadLockedReq accesses(hits+misses)
system.cpu0.dcache.StoreCondReq_accesses::cpu0.data           23                       # number of StoreCondReq accesses(hits+misses)
system.cpu0.dcache.StoreCondReq_accesses::total           23                       # number of StoreCondReq accesses(hits+misses)
system.cpu0.dcache.demand_accesses::cpu0.data     40001885                       # number of demand (read+write) accesses
system.cpu0.dcache.demand_accesses::total     40001885                       # number of demand (read+write) accesses
system.cpu0.dcache.overall_accesses::cpu0.data     40001885                       # number of overall (read+write) accesses
system.cpu0.dcache.overall_accesses::total     40001885                       # number of overall (read+write) accesses
system.cpu0.dcache.ReadReq_miss_rate::cpu0.data     0.000008                       # miss rate for ReadReq accesses
system.cpu0.dcache.ReadReq_miss_rate::total     0.000008                       # miss rate for ReadReq accesses
system.cpu0.dcache.WriteReq_miss_rate::cpu0.data     0.000121                       # miss rate for WriteReq accesses
system.cpu0.dcache.WriteReq_miss_rate::total     0.000121                       # miss rate for WriteReq accesses
system.cpu0.dcache.LoadLockedReq_miss_rate::cpu0.data     0.130435                       # miss rate for LoadLockedReq accesses
system.cpu0.dcache.LoadLockedReq_miss_rate::total     0.130435                       # miss rate for LoadLockedReq accesses
system.cpu0.dcache.demand_miss_rate::cpu0.data     0.000064                       # miss rate for demand accesses
system.cpu0.dcache.demand_miss_rate::total     0.000064                       # miss rate for demand accesses
system.cpu0.dcache.overall_miss_rate::cpu0.data     0.000064                       # miss rate for overall accesses
system.cpu0.dcache.overall_miss_rate::total     0.000064                       # miss rate for overall accesses
system.cpu0.dcache.ReadReq_avg_miss_latency::cpu0.data 47718.121212                       # average ReadReq miss latency
system.cpu0.dcache.ReadReq_avg_miss_latency::total 47718.121212                       # average ReadReq miss latency
system.cpu0.dcache.WriteReq_avg_miss_latency::cpu0.data 49044.739022                       # average WriteReq miss latency
system.cpu0.dcache.WriteReq_avg_miss_latency::total 49044.739022                       # average WriteReq miss latency
system.cpu0.dcache.LoadLockedReq_avg_miss_latency::cpu0.data        44500                       # average LoadLockedReq miss latency
system.cpu0.dcache.LoadLockedReq_avg_miss_latency::total        44500                       # average LoadLockedReq miss latency
system.cpu0.dcache.demand_avg_miss_latency::cpu0.data 48959.864288                       # average overall miss latency
system.cpu0.dcache.demand_avg_miss_latency::total 48959.864288                       # average overall miss latency
system.cpu0.dcache.overall_avg_miss_latency::cpu0.data 48959.864288                       # average overall miss latency
system.cpu0.dcache.overall_avg_miss_latency::total 48959.864288                       # average overall miss latency
system.cpu0.dcache.blocked_cycles::no_mshrs            0                       # number of cycles access was blocked
system.cpu0.dcache.blocked_cycles::no_targets            0                       # number of cycles access was blocked
system.cpu0.dcache.blocked::no_mshrs                0                       # number of cycles access was blocked
system.cpu0.dcache.blocked::no_targets              0                       # number of cycles access was blocked
system.cpu0.dcache.avg_blocked_cycles::no_mshrs          nan                       # average number of cycles each access was blocked
system.cpu0.dcache.avg_blocked_cycles::no_targets          nan                       # average number of cycles each access was blocked
system.cpu0.dcache.fast_writes                      0                       # number of fast writes performed
system.cpu0.dcache.cache_copies                     0                       # number of cache copies performed
system.cpu0.dcache.writebacks::writebacks           16                       # number of writebacks
system.cpu0.dcache.writebacks::total               16                       # number of writebacks
system.cpu0.dcache.ReadReq_mshr_hits::cpu0.data           53                       # number of ReadReq MSHR hits
system.cpu0.dcache.ReadReq_mshr_hits::total           53                       # number of ReadReq MSHR hits
system.cpu0.dcache.WriteReq_mshr_hits::cpu0.data         2220                       # number of WriteReq MSHR hits
system.cpu0.dcache.WriteReq_mshr_hits::total         2220                       # number of WriteReq MSHR hits
system.cpu0.dcache.LoadLockedReq_mshr_hits::cpu0.data            3                       # number of LoadLockedReq MSHR hits
system.cpu0.dcache.LoadLockedReq_mshr_hits::total            3                       # number of LoadLockedReq MSHR hits
system.cpu0.dcache.demand_mshr_hits::cpu0.data         2273                       # number of demand (read+write) MSHR hits
system.cpu0.dcache.demand_mshr_hits::total         2273                       # number of demand (read+write) MSHR hits
system.cpu0.dcache.overall_mshr_hits::cpu0.data         2273                       # number of overall MSHR hits
system.cpu0.dcache.overall_mshr_hits::total         2273                       # number of overall MSHR hits
system.cpu0.dcache.ReadReq_mshr_misses::cpu0.data          112                       # number of ReadReq MSHR misses
system.cpu0.dcache.ReadReq_mshr_misses::total          112                       # number of ReadReq MSHR misses
system.cpu0.dcache.WriteReq_mshr_misses::cpu0.data          194                       # number of WriteReq MSHR misses
system.cpu0.dcache.WriteReq_mshr_misses::total          194                       # number of WriteReq MSHR misses
system.cpu0.dcache.demand_mshr_misses::cpu0.data          306                       # number of demand (read+write) MSHR misses
system.cpu0.dcache.demand_mshr_misses::total          306                       # number of demand (read+write) MSHR misses
system.cpu0.dcache.overall_mshr_misses::cpu0.data          306                       # number of overall MSHR misses
system.cpu0.dcache.overall_mshr_misses::total          306                       # number of overall MSHR misses
system.cpu0.dcache.ReadReq_mshr_miss_latency::cpu0.data      5270506                       # number of ReadReq MSHR miss cycles
system.cpu0.dcache.ReadReq_mshr_miss_latency::total      5270506                       # number of ReadReq MSHR miss cycles
system.cpu0.dcache.WriteReq_mshr_miss_latency::cpu0.data     10725000                       # number of WriteReq MSHR miss cycles
system.cpu0.dcache.WriteReq_mshr_miss_latency::total     10725000                       # number of WriteReq MSHR miss cycles
system.cpu0.dcache.demand_mshr_miss_latency::cpu0.data     15995506                       # number of demand (read+write) MSHR miss cycles
system.cpu0.dcache.demand_mshr_miss_latency::total     15995506                       # number of demand (read+write) MSHR miss cycles
system.cpu0.dcache.overall_mshr_miss_latency::cpu0.data     15995506                       # number of overall MSHR miss cycles
system.cpu0.dcache.overall_mshr_miss_latency::total     15995506                       # number of overall MSHR miss cycles
system.cpu0.dcache.ReadReq_mshr_miss_rate::cpu0.data     0.000006                       # mshr miss rate for ReadReq accesses
system.cpu0.dcache.ReadReq_mshr_miss_rate::total     0.000006                       # mshr miss rate for ReadReq accesses
system.cpu0.dcache.WriteReq_mshr_miss_rate::cpu0.data     0.000010                       # mshr miss rate for WriteReq accesses
system.cpu0.dcache.WriteReq_mshr_miss_rate::total     0.000010                       # mshr miss rate for WriteReq accesses
system.cpu0.dcache.demand_mshr_miss_rate::cpu0.data     0.000008                       # mshr miss rate for demand accesses
system.cpu0.dcache.demand_mshr_miss_rate::total     0.000008                       # mshr miss rate for demand accesses
system.cpu0.dcache.overall_mshr_miss_rate::cpu0.data     0.000008                       # mshr miss rate for overall accesses
system.cpu0.dcache.overall_mshr_miss_rate::total     0.000008                       # mshr miss rate for overall accesses
system.cpu0.dcache.ReadReq_avg_mshr_miss_latency::cpu0.data 47058.089286                       # average ReadReq mshr miss latency
system.cpu0.dcache.ReadReq_avg_mshr_miss_latency::total 47058.089286                       # average ReadReq mshr miss latency
system.cpu0.dcache.WriteReq_avg_mshr_miss_latency::cpu0.data 55283.505155                       # average WriteReq mshr miss latency
system.cpu0.dcache.WriteReq_avg_mshr_miss_latency::total 55283.505155                       # average WriteReq mshr miss latency
system.cpu0.dcache.demand_avg_mshr_miss_latency::cpu0.data 52272.895425                       # average overall mshr miss latency
system.cpu0.dcache.demand_avg_mshr_miss_latency::total 52272.895425                       # average overall mshr miss latency
system.cpu0.dcache.overall_avg_mshr_miss_latency::cpu0.data 52272.895425                       # average overall mshr miss latency
system.cpu0.dcache.overall_avg_mshr_miss_latency::total 52272.895425                       # average overall mshr miss latency
system.cpu0.dcache.no_allocate_misses               0                       # Number of misses that were no-allocate
system.cpu0.icache.tags.replacements               55                       # number of replacements
system.cpu0.icache.tags.tagsinuse          288.918071                       # Cycle average of tags in use
system.cpu0.icache.tags.total_refs               1858                       # Total number of references to valid blocks.
system.cpu0.icache.tags.sampled_refs              344                       # Sample count of references to valid blocks.
system.cpu0.icache.tags.avg_refs             5.401163                       # Average number of references to valid blocks.
system.cpu0.icache.tags.warmup_cycle                0                       # Cycle when the warmup percentage was hit.
system.cpu0.icache.tags.occ_blocks::cpu0.inst   288.918071                       # Average occupied blocks per requestor
system.cpu0.icache.tags.occ_percent::cpu0.inst     0.564293                       # Average percentage of cache occupancy
system.cpu0.icache.tags.occ_percent::total     0.564293                       # Average percentage of cache occupancy
system.cpu0.icache.tags.occ_task_id_blocks::1024          289                       # Occupied blocks per task id
system.cpu0.icache.tags.age_task_id_blocks_1024::4          289                       # Occupied blocks per task id
system.cpu0.icache.tags.occ_task_id_percent::1024     0.564453                       # Percentage of cache occupancy per task id
system.cpu0.icache.tags.tag_accesses             4874                       # Number of tag accesses
system.cpu0.icache.tags.data_accesses            4874                       # Number of data accesses
system.cpu0.icache.ReadReq_hits::cpu0.inst         1858                       # number of ReadReq hits
system.cpu0.icache.ReadReq_hits::total           1858                       # number of ReadReq hits
system.cpu0.icache.demand_hits::cpu0.inst         1858                       # number of demand (read+write) hits
system.cpu0.icache.demand_hits::total            1858                       # number of demand (read+write) hits
system.cpu0.icache.overall_hits::cpu0.inst         1858                       # number of overall hits
system.cpu0.icache.overall_hits::total           1858                       # number of overall hits
system.cpu0.icache.ReadReq_misses::cpu0.inst          407                       # number of ReadReq misses
system.cpu0.icache.ReadReq_misses::total          407                       # number of ReadReq misses
system.cpu0.icache.demand_misses::cpu0.inst          407                       # number of demand (read+write) misses
[...]
system.l2.demand_avg_mshr_miss_latency::cpu8.data 40530.611275                       # average overall mshr miss latency
system.l2.demand_avg_mshr_miss_latency::total 40541.260895                       # average overall mshr miss latency
system.l2.overall_avg_mshr_miss_latency::cpu0.inst 41066.358025                       # average overall mshr miss latency
system.l2.overall_avg_mshr_miss_latency::cpu0.data 41231.884058                       # average overall mshr miss latency
system.l2.overall_avg_mshr_miss_latency::cpu1.inst 40843.750000                       # average overall mshr miss latency
system.l2.overall_avg_mshr_miss_latency::cpu1.data 40529.742348                       # average overall mshr miss latency
system.l2.overall_avg_mshr_miss_latency::cpu2.inst 41236.842105                       # average overall mshr miss latency
system.l2.overall_avg_mshr_miss_latency::cpu2.data 40539.701716                       # average overall mshr miss latency
system.l2.overall_avg_mshr_miss_latency::cpu3.inst 40618.181818                       # average overall mshr miss latency
system.l2.overall_avg_mshr_miss_latency::cpu3.data 40538.864512                       # average overall mshr miss latency
system.l2.overall_avg_mshr_miss_latency::cpu4.inst 40794.117647                       # average overall mshr miss latency
system.l2.overall_avg_mshr_miss_latency::cpu4.data 40538.770170                       # average overall mshr miss latency
system.l2.overall_avg_mshr_miss_latency::cpu5.inst 42516.666667                       # average overall mshr miss latency
system.l2.overall_avg_mshr_miss_latency::cpu5.data 40532.136106                       # average overall mshr miss latency
system.l2.overall_avg_mshr_miss_latency::cpu6.inst 40733.333333                       # average overall mshr miss latency
system.l2.overall_avg_mshr_miss_latency::cpu6.data 40533.442228                       # average overall mshr miss latency
system.l2.overall_avg_mshr_miss_latency::cpu7.inst 40805.555556                       # average overall mshr miss latency
system.l2.overall_avg_mshr_miss_latency::cpu7.data 40538.778960                       # average overall mshr miss latency
system.l2.overall_avg_mshr_miss_latency::cpu8.inst 40696.969697                       # average overall mshr miss latency
system.l2.overall_avg_mshr_miss_latency::cpu8.data 40530.611275                       # average overall mshr miss latency
system.l2.overall_avg_mshr_miss_latency::total 40541.260895                       # average overall mshr miss latency
system.l2.no_allocate_misses                        0                       # Number of misses that were no-allocate
system.membus.trans_dist::ReadReq               86841                       # Transaction distribution
system.membus.trans_dist::ReadResp              86841                       # Transaction distribution
system.membus.trans_dist::Writeback              1743                       # Transaction distribution
system.membus.trans_dist::UpgradeReq           504276                       # Transaction distribution
system.membus.trans_dist::SCUpgradeReq         514649                       # Transaction distribution
system.membus.trans_dist::UpgradeResp          405939                       # Transaction distribution
system.membus.trans_dist::SCUpgradeFailReq          819                       # Transaction distribution
system.membus.trans_dist::ReadExReq             17833                       # Transaction distribution
system.membus.trans_dist::ReadExResp             3111                       # Transaction distribution
system.membus.pkt_count_system.l2.mem_side::system.physmem.port      1622052                       # Packet count per connected master and slave (bytes)
system.membus.pkt_count::total                1622052                       # Packet count per connected master and slave (bytes)
system.membus.pkt_size_system.l2.mem_side::system.physmem.port      5868480                       # Cumulative packet size per connected master and slave (bytes)
system.membus.pkt_size::total                 5868480                       # Cumulative packet size per connected master and slave (bytes)
system.membus.snoops                           628527                       # Total snoops (count)
system.membus.snoop_fanout::samples           1131250                       # Request fanout histogram
system.membus.snoop_fanout::mean                    0                       # Request fanout histogram
system.membus.snoop_fanout::stdev                   0                       # Request fanout histogram
system.membus.snoop_fanout::underflows              0      0.00%      0.00% # Request fanout histogram
system.membus.snoop_fanout::0                 1131250    100.00%    100.00% # Request fanout histogram
system.membus.snoop_fanout::1                       0      0.00%    100.00% # Request fanout histogram
system.membus.snoop_fanout::overflows               0      0.00%    100.00% # Request fanout histogram
system.membus.snoop_fanout::min_value               0                       # Request fanout histogram
system.membus.snoop_fanout::max_value               0                       # Request fanout histogram
system.membus.snoop_fanout::total             1131250                       # Request fanout histogram
system.membus.reqLayer0.occupancy           711522973                       # Layer occupancy (ticks)
system.membus.reqLayer0.utilization               1.8                       # Layer utilization (%)
system.membus.respLayer1.occupancy         1052100880                       # Layer occupancy (ticks)
system.membus.respLayer1.utilization              2.6                       # Layer utilization (%)
system.tol2bus.trans_dist::ReadReq            4984613                       # Transaction distribution
system.tol2bus.trans_dist::ReadResp           4977056                       # Transaction distribution
system.tol2bus.trans_dist::ReadRespWithInvalidate         7556                       # Transaction distribution
system.tol2bus.trans_dist::Writeback            20966                       # Transaction distribution
system.tol2bus.trans_dist::UpgradeReq          504286                       # Transaction distribution
system.tol2bus.trans_dist::SCUpgradeReq        514653                       # Transaction distribution
system.tol2bus.trans_dist::UpgradeResp        1018938                       # Transaction distribution
system.tol2bus.trans_dist::SCUpgradeFailReq       146897                       # Transaction distribution
system.tol2bus.trans_dist::UpgradeFailResp       146897                       # Transaction distribution
system.tol2bus.trans_dist::ReadExReq            39043                       # Transaction distribution
system.tol2bus.trans_dist::ReadExResp           39043                       # Transaction distribution
system.tol2bus.pkt_count_system.cpu0.icache.mem_side::system.l2.cpu_side          688                       # Packet count per connected master and slave (bytes)
system.tol2bus.pkt_count_system.cpu0.dcache.mem_side::system.l2.cpu_side          628                       # Packet count per connected master and slave (bytes)
system.tol2bus.pkt_count_system.cpu1.icache.mem_side::system.l2.cpu_side         6574                       # Packet count per connected master and slave (bytes)
system.tol2bus.pkt_count_system.cpu1.dcache.mem_side::system.l2.cpu_side       817322                       # Packet count per connected master and slave (bytes)
system.tol2bus.pkt_count_system.cpu2.icache.mem_side::system.l2.cpu_side         6050                       # Packet count per connected master and slave (bytes)
system.tol2bus.pkt_count_system.cpu2.dcache.mem_side::system.l2.cpu_side       879477                       # Packet count per connected master and slave (bytes)
system.tol2bus.pkt_count_system.cpu3.icache.mem_side::system.l2.cpu_side         6304                       # Packet count per connected master and slave (bytes)
system.tol2bus.pkt_count_system.cpu3.dcache.mem_side::system.l2.cpu_side       821050                       # Packet count per connected master and slave (bytes)
system.tol2bus.pkt_count_system.cpu4.icache.mem_side::system.l2.cpu_side         6634                       # Packet count per connected master and slave (bytes)
system.tol2bus.pkt_count_system.cpu4.dcache.mem_side::system.l2.cpu_side       854874                       # Packet count per connected master and slave (bytes)
system.tol2bus.pkt_count_system.cpu5.icache.mem_side::system.l2.cpu_side         6158                       # Packet count per connected master and slave (bytes)
system.tol2bus.pkt_count_system.cpu5.dcache.mem_side::system.l2.cpu_side       872548                       # Packet count per connected master and slave (bytes)
system.tol2bus.pkt_count_system.cpu6.icache.mem_side::system.l2.cpu_side         6074                       # Packet count per connected master and slave (bytes)
system.tol2bus.pkt_count_system.cpu6.dcache.mem_side::system.l2.cpu_side       884918                       # Packet count per connected master and slave (bytes)
system.tol2bus.pkt_count_system.cpu7.icache.mem_side::system.l2.cpu_side         6172                       # Packet count per connected master and slave (bytes)
system.tol2bus.pkt_count_system.cpu7.dcache.mem_side::system.l2.cpu_side       874320                       # Packet count per connected master and slave (bytes)
system.tol2bus.pkt_count_system.cpu8.icache.mem_side::system.l2.cpu_side         6096                       # Packet count per connected master and slave (bytes)
system.tol2bus.pkt_count_system.cpu8.dcache.mem_side::system.l2.cpu_side       815164                       # Packet count per connected master and slave (bytes)
system.tol2bus.pkt_count::total               6871051                       # Packet count per connected master and slave (bytes)
system.tol2bus.pkt_size_system.cpu0.icache.mem_side::system.l2.cpu_side        22016                       # Cumulative packet size per connected master and slave (bytes)
system.tol2bus.pkt_size_system.cpu0.dcache.mem_side::system.l2.cpu_side        20544                       # Cumulative packet size per connected master and slave (bytes)
system.tol2bus.pkt_size_system.cpu1.icache.mem_side::system.l2.cpu_side       210368                       # Cumulative packet size per connected master and slave (bytes)
system.tol2bus.pkt_size_system.cpu1.dcache.mem_side::system.l2.cpu_side      1937088                       # Cumulative packet size per connected master and slave (bytes)
system.tol2bus.pkt_size_system.cpu2.icache.mem_side::system.l2.cpu_side       193600                       # Cumulative packet size per connected master and slave (bytes)
system.tol2bus.pkt_size_system.cpu2.dcache.mem_side::system.l2.cpu_side      1957440                       # Cumulative packet size per connected master and slave (bytes)
system.tol2bus.pkt_size_system.cpu3.icache.mem_side::system.l2.cpu_side       201728                       # Cumulative packet size per connected master and slave (bytes)
system.tol2bus.pkt_size_system.cpu3.dcache.mem_side::system.l2.cpu_side      1928640                       # Cumulative packet size per connected master and slave (bytes)
system.tol2bus.pkt_size_system.cpu4.icache.mem_side::system.l2.cpu_side       212288                       # Cumulative packet size per connected master and slave (bytes)
system.tol2bus.pkt_size_system.cpu4.dcache.mem_side::system.l2.cpu_side      1853952                       # Cumulative packet size per connected master and slave (bytes)
system.tol2bus.pkt_size_system.cpu5.icache.mem_side::system.l2.cpu_side       197056                       # Cumulative packet size per connected master and slave (bytes)
system.tol2bus.pkt_size_system.cpu5.dcache.mem_side::system.l2.cpu_side      2091968                       # Cumulative packet size per connected master and slave (bytes)
system.tol2bus.pkt_size_system.cpu6.icache.mem_side::system.l2.cpu_side       194368                       # Cumulative packet size per connected master and slave (bytes)
system.tol2bus.pkt_size_system.cpu6.dcache.mem_side::system.l2.cpu_side      2168576                       # Cumulative packet size per connected master and slave (bytes)
system.tol2bus.pkt_size_system.cpu7.icache.mem_side::system.l2.cpu_side       197504                       # Cumulative packet size per connected master and slave (bytes)
system.tol2bus.pkt_size_system.cpu7.dcache.mem_side::system.l2.cpu_side      1996992                       # Cumulative packet size per connected master and slave (bytes)
system.tol2bus.pkt_size_system.cpu8.icache.mem_side::system.l2.cpu_side       195072                       # Cumulative packet size per connected master and slave (bytes)
system.tol2bus.pkt_size_system.cpu8.dcache.mem_side::system.l2.cpu_side      2059648                       # Cumulative packet size per connected master and slave (bytes)
system.tol2bus.pkt_size::total               17638848                       # Cumulative packet size per connected master and slave (bytes)
system.tol2bus.snoops                         5528897                       # Total snoops (count)
system.tol2bus.snoop_fanout::samples          6210458                       # Request fanout histogram
system.tol2bus.snoop_fanout::mean                  17                       # Request fanout histogram
system.tol2bus.snoop_fanout::stdev                  0                       # Request fanout histogram
system.tol2bus.snoop_fanout::underflows             0      0.00%      0.00% # Request fanout histogram
system.tol2bus.snoop_fanout::0                      0      0.00%      0.00% # Request fanout histogram
system.tol2bus.snoop_fanout::1                      0      0.00%      0.00% # Request fanout histogram
system.tol2bus.snoop_fanout::2                      0      0.00%      0.00% # Request fanout histogram
system.tol2bus.snoop_fanout::3                      0      0.00%      0.00% # Request fanout histogram
system.tol2bus.snoop_fanout::4                      0      0.00%      0.00% # Request fanout histogram
system.tol2bus.snoop_fanout::5                      0      0.00%      0.00% # Request fanout histogram
system.tol2bus.snoop_fanout::6                      0      0.00%      0.00% # Request fanout histogram
system.tol2bus.snoop_fanout::7                      0      0.00%      0.00% # Request fanout histogram
system.tol2bus.snoop_fanout::8                      0      0.00%      0.00% # Request fanout histogram
system.tol2bus.snoop_fanout::9                      0      0.00%      0.00% # Request fanout histogram
system.tol2bus.snoop_fanout::10                     0      0.00%      0.00% # Request fanout histogram
system.tol2bus.snoop_fanout::11                     0      0.00%      0.00% # Request fanout histogram
system.tol2bus.snoop_fanout::12                     0      0.00%      0.00% # Request fanout histogram
system.tol2bus.snoop_fanout::13                     0      0.00%      0.00% # Request fanout histogram
system.tol2bus.snoop_fanout::14                     0      0.00%      0.00% # Request fanout histogram
system.tol2bus.snoop_fanout::15                     0      0.00%      0.00% # Request fanout histogram
system.tol2bus.snoop_fanout::16                     0      0.00%      0.00% # Request fanout histogram
system.tol2bus.snoop_fanout::17               6210458    100.00%    100.00% # Request fanout histogram
system.tol2bus.snoop_fanout::18                     0      0.00%    100.00% # Request fanout histogram
system.tol2bus.snoop_fanout::overflows              0      0.00%    100.00% # Request fanout histogram
system.tol2bus.snoop_fanout::min_value             17                       # Request fanout histogram
system.tol2bus.snoop_fanout::max_value             17                       # Request fanout histogram
system.tol2bus.snoop_fanout::total            6210458                       # Request fanout histogram
system.tol2bus.reqLayer0.occupancy         3183220822                       # Layer occupancy (ticks)
system.tol2bus.reqLayer0.utilization              8.0                       # Layer utilization (%)
system.tol2bus.respLayer0.occupancy            516998                       # Layer occupancy (ticks)
system.tol2bus.respLayer0.utilization             0.0                       # Layer utilization (%)
system.tol2bus.respLayer1.occupancy            460994                       # Layer occupancy (ticks)
system.tol2bus.respLayer1.utilization             0.0                       # Layer utilization (%)
system.tol2bus.respLayer4.occupancy           4960892                       # Layer occupancy (ticks)
system.tol2bus.respLayer4.utilization             0.0                       # Layer utilization (%)
system.tol2bus.respLayer5.occupancy        1115999903                       # Layer occupancy (ticks)
system.tol2bus.respLayer5.utilization             2.8                       # Layer utilization (%)
system.tol2bus.respLayer8.occupancy           4553952                       # Layer occupancy (ticks)
system.tol2bus.respLayer8.utilization             0.0                       # Layer utilization (%)
system.tol2bus.respLayer9.occupancy        1222223794                       # Layer occupancy (ticks)
system.tol2bus.respLayer9.utilization             3.1                       # Layer utilization (%)
system.tol2bus.respLayer12.occupancy          4758396                       # Layer occupancy (ticks)
system.tol2bus.respLayer12.utilization            0.0                       # Layer utilization (%)
system.tol2bus.respLayer13.occupancy       1123931171                       # Layer occupancy (ticks)
system.tol2bus.respLayer13.utilization            2.8                       # Layer utilization (%)
system.tol2bus.respLayer16.occupancy          4980486                       # Layer occupancy (ticks)
system.tol2bus.respLayer16.utilization            0.0                       # Layer utilization (%)
system.tol2bus.respLayer17.occupancy       1184902916                       # Layer occupancy (ticks)
system.tol2bus.respLayer17.utilization            3.0                       # Layer utilization (%)
system.tol2bus.respLayer20.occupancy          4621493                       # Layer occupancy (ticks)
system.tol2bus.respLayer20.utilization            0.0                       # Layer utilization (%)
system.tol2bus.respLayer21.occupancy       1190907447                       # Layer occupancy (ticks)
system.tol2bus.respLayer21.utilization            3.0                       # Layer utilization (%)
system.tol2bus.respLayer24.occupancy          4562979                       # Layer occupancy (ticks)
system.tol2bus.respLayer24.utilization            0.0                       # Layer utilization (%)
system.tol2bus.respLayer25.occupancy       1222374563                       # Layer occupancy (ticks)
system.tol2bus.respLayer25.utilization            3.1                       # Layer utilization (%)
system.tol2bus.respLayer28.occupancy          4653425                       # Layer occupancy (ticks)
system.tol2bus.respLayer28.utilization            0.0                       # Layer utilization (%)
system.tol2bus.respLayer29.occupancy       1210761506                       # Layer occupancy (ticks)
system.tol2bus.respLayer29.utilization            3.0                       # Layer utilization (%)
system.tol2bus.respLayer32.occupancy          4580463                       # Layer occupancy (ticks)
system.tol2bus.respLayer32.utilization            0.0                       # Layer utilization (%)
system.tol2bus.respLayer33.occupancy       1105338321                       # Layer occupancy (ticks)
system.tol2bus.respLayer33.utilization            2.8                       # Layer utilization (%)

---------- End Simulation Statistics   ----------
