
---------- Begin Simulation Statistics ----------
sim_seconds                                  0.016036                       # Number of seconds simulated
sim_ticks                                 16035930000                       # Number of ticks simulated
final_tick                                16035930000                       # Number of ticks from beginning of simulation (restored from checkpoints and never reset)
sim_freq                                 1000000000000                       # Frequency of simulated ticks
host_inst_rate                                 170470                       # Simulator instruction rate (inst/s)
host_op_rate                                   175568                       # Simulator op (including micro ops) rate (op/s)
host_tick_rate                               35621512                       # Simulator tick rate (ticks/s)
host_mem_usage                                 701176                       # Number of bytes of host memory used
host_seconds                                   450.18                       # Real time elapsed on the host
sim_insts                                    76741532                       # Number of instructions simulated
sim_ops                                      79036506                       # Number of ops (including micro ops) simulated
system.voltage_domain.voltage                       1                       # Voltage in Volts
system.clk_domain.clock                          1000                       # Clock period in ticks
system.physmem.bytes_read::cpu0.inst            22528                       # Number of bytes read from this memory
system.physmem.bytes_read::cpu0.data            17792                       # Number of bytes read from this memory
system.physmem.bytes_read::cpu1.inst             6848                       # Number of bytes read from this memory
system.physmem.bytes_read::cpu1.data           133184                       # Number of bytes read from this memory
system.physmem.bytes_read::cpu2.inst             5056                       # Number of bytes read from this memory
system.physmem.bytes_read::cpu2.data           273280                       # Number of bytes read from this memory
system.physmem.bytes_read::cpu3.inst             1600                       # Number of bytes read from this memory
system.physmem.bytes_read::cpu3.data           335232                       # Number of bytes read from this memory
system.physmem.bytes_read::cpu4.inst             6080                       # Number of bytes read from this memory
system.physmem.bytes_read::cpu4.data           225024                       # Number of bytes read from this memory
system.physmem.bytes_read::total              1026624                       # Number of bytes read from this memory
system.physmem.bytes_inst_read::cpu0.inst        22528                       # Number of instructions bytes read from this memory
system.physmem.bytes_inst_read::cpu1.inst         6848                       # Number of instructions bytes read from this memory
system.physmem.bytes_inst_read::cpu2.inst         5056                       # Number of instructions bytes read from this memory
system.physmem.bytes_inst_read::cpu3.inst         1600                       # Number of instructions bytes read from this memory
system.physmem.bytes_inst_read::cpu4.inst         6080                       # Number of instructions bytes read from this memory
system.physmem.bytes_inst_read::total           42112                       # Number of instructions bytes read from this memory
system.physmem.bytes_written::writebacks        19840                       # Number of bytes written to this memory
system.physmem.bytes_written::total             19840                       # Number of bytes written to this memory
system.physmem.num_reads::cpu0.inst               352                       # Number of read requests responded to by this memory
system.physmem.num_reads::cpu0.data               278                       # Number of read requests responded to by this memory
system.physmem.num_reads::cpu1.inst               107                       # Number of read requests responded to by this memory
system.physmem.num_reads::cpu1.data              2081                       # Number of read requests responded to by this memory
system.physmem.num_reads::cpu2.inst                79                       # Number of read requests responded to by this memory
system.physmem.num_reads::cpu2.data              4270                       # Number of read requests responded to by this memory
system.physmem.num_reads::cpu3.inst                25                       # Number of read requests responded to by this memory
system.physmem.num_reads::cpu3.data              5238                       # Number of read requests responded to by this memory
system.physmem.num_reads::cpu4.inst                95                       # Number of read requests responded to by this memory
system.physmem.num_reads::cpu4.data              3516                       # Number of read requests responded to by this memory
system.physmem.num_reads::total                 16041                       # Number of read requests responded to by this memory
system.physmem.num_writes::writebacks             310                       # Number of write requests responded to by this memory
system.physmem.num_writes::total                  310                       # Number of write requests responded to by this memory
system.physmem.bw_read::cpu0.inst             1404845                       # Total read bandwidth from this memory (bytes/s)
system.physmem.bw_read::cpu0.data             1109508                       # Total read bandwidth from this memory (bytes/s)
system.physmem.bw_read::cpu1.inst              427041                       # Total read bandwidth from this memory (bytes/s)
system.physmem.bw_read::cpu1.data             8305349                       # Total read bandwidth from this memory (bytes/s)
system.physmem.bw_read::cpu2.inst              315292                       # Total read bandwidth from this memory (bytes/s)
system.physmem.bw_read::cpu2.data            17041731                       # Total read bandwidth from this memory (bytes/s)
system.physmem.bw_read::cpu3.inst               99776                       # Total read bandwidth from this memory (bytes/s)
system.physmem.bw_read::cpu3.data            20905055                       # Total read bandwidth from this memory (bytes/s)
system.physmem.bw_read::cpu4.inst              379149                       # Total read bandwidth from this memory (bytes/s)
system.physmem.bw_read::cpu4.data            14032488                       # Total read bandwidth from this memory (bytes/s)
system.physmem.bw_read::total                64020235                       # Total read bandwidth from this memory (bytes/s)
system.physmem.bw_inst_read::cpu0.inst        1404845                       # Instruction read bandwidth from this memory (bytes/s)
system.physmem.bw_inst_read::cpu1.inst         427041                       # Instruction read bandwidth from this memory (bytes/s)
system.physmem.bw_inst_read::cpu2.inst         315292                       # Instruction read bandwidth from this memory (bytes/s)
system.physmem.bw_inst_read::cpu3.inst          99776                       # Instruction read bandwidth from this memory (bytes/s)
system.physmem.bw_inst_read::cpu4.inst         379149                       # Instruction read bandwidth from this memory (bytes/s)
system.physmem.bw_inst_read::total            2626103                       # Instruction read bandwidth from this memory (bytes/s)
system.physmem.bw_write::writebacks           1237222                       # Write bandwidth from this memory (bytes/s)
system.physmem.bw_write::total                1237222                       # Write bandwidth from this memory (bytes/s)
system.physmem.bw_total::writebacks           1237222                       # Total bandwidth to/from this memory (bytes/s)
system.physmem.bw_total::cpu0.inst            1404845                       # Total bandwidth to/from this memory (bytes/s)
system.physmem.bw_total::cpu0.data            1109508                       # Total bandwidth to/from this memory (bytes/s)
system.physmem.bw_total::cpu1.inst             427041                       # Total bandwidth to/from this memory (bytes/s)
system.physmem.bw_total::cpu1.data            8305349                       # Total bandwidth to/from this memory (bytes/s)
system.physmem.bw_total::cpu2.inst             315292                       # Total bandwidth to/from this memory (bytes/s)
system.physmem.bw_total::cpu2.data           17041731                       # Total bandwidth to/from this memory (bytes/s)
system.physmem.bw_total::cpu3.inst              99776                       # Total bandwidth to/from this memory (bytes/s)
system.physmem.bw_total::cpu3.data           20905055                       # Total bandwidth to/from this memory (bytes/s)
system.physmem.bw_total::cpu4.inst             379149                       # Total bandwidth to/from this memory (bytes/s)
system.physmem.bw_total::cpu4.data           14032488                       # Total bandwidth to/from this memory (bytes/s)
system.physmem.bw_total::total               65257456                       # Total bandwidth to/from this memory (bytes/s)
system.cpu0.branchPred.lookups                8006777                       # Number of BP lookups
system.cpu0.branchPred.condPredicted          8005872                       # Number of conditional branches predicted
system.cpu0.branchPred.condIncorrect              583                       # Number of conditional branches incorrect
system.cpu0.branchPred.BTBLookups             8005149                       # Number of BTB lookups
system.cpu0.branchPred.BTBHits                8004755                       # Number of BTB hits
system.cpu0.branchPred.BTBCorrect                   0                       # Number of correct BTB predictions (this stat may not work properly.
system.cpu0.branchPred.BTBHitPct            99.995078                       # BTB Hit Percentage
system.cpu0.branchPred.usedRAS                    289                       # Number of times the RAS was used to get a target.
system.cpu0.branchPred.RASInCorrect                55                       # Number of incorrect RAS predictions.
system.cpu0.dstage2_mmu.stage2_tlb.walker.walks            0                       # Table walker walks requested
system.cpu0.dstage2_mmu.stage2_tlb.walker.walkRequestOrigin_Requested::Data            0                       # Table walker requests started/completed, data/inst
system.cpu0.dstage2_mmu.stage2_tlb.walker.walkRequestOrigin_Requested::Inst            0                       # Table walker requests started/completed, data/inst
system.cpu0.dstage2_mmu.stage2_tlb.walker.walkRequestOrigin_Requested::total            0                       # Table walker requests started/completed, data/inst
system.cpu0.dstage2_mmu.stage2_tlb.walker.walkRequestOrigin_Completed::Data            0                       # Table walker requests started/completed, data/inst
system.cpu0.dstage2_mmu.stage2_tlb.walker.walkRequestOrigin_Completed::Inst            0                       # Table walker requests started/completed, data/inst
system.cpu0.dstage2_mmu.stage2_tlb.walker.walkRequestOrigin_Completed::total            0                       # Table walker requests started/completed, data/inst
system.cpu0.dstage2_mmu.stage2_tlb.walker.walkRequestOrigin::total            0                       # Table walker requests started/completed, data/inst
system.cpu0.dstage2_mmu.stage2_tlb.inst_hits            0                       # ITB inst hits
system.cpu0.dstage2_mmu.stage2_tlb.inst_misses            0                       # ITB inst misses
system.cpu0.dstage2_mmu.stage2_tlb.read_hits            0                       # DTB read hits
system.cpu0.dstage2_mmu.stage2_tlb.read_misses            0                       # DTB read misses
system.cpu0.dstage2_mmu.stage2_tlb.write_hits            0                       # DTB write hits
system.cpu0.dstage2_mmu.stage2_tlb.write_misses            0                       # DTB write misses
system.cpu0.dstage2_mmu.stage2_tlb.flush_tlb            0                       # Number of times complete TLB was flushed
system.cpu0.dstage2_mmu.stage2_tlb.flush_tlb_mva            0                       # Number of times TLB was flushed by MVA
system.cpu0.dstage2_mmu.stage2_tlb.flush_tlb_mva_asid            0                       # Number of times TLB was flushed by MVA & ASID
system.cpu0.dstage2_mmu.stage2_tlb.flush_tlb_asid            0                       # Number of times TLB was flushed by ASID
system.cpu0.dstage2_mmu.stage2_tlb.flush_entries            0                       # Number of entries that have been flushed from TLB
system.cpu0.dstage2_mmu.stage2_tlb.align_faults            0                       # Number of TLB faults due to alignment restrictions
system.cpu0.dstage2_mmu.stage2_tlb.prefetch_faults            0                       # Number of TLB faults due to prefetch
system.cpu0.dstage2_mmu.stage2_tlb.domain_faults            0                       # Number of TLB faults due to domain restrictions
system.cpu0.dstage2_mmu.stage2_tlb.perms_faults            0                       # Number of TLB faults due to permissions restrictions
system.cpu0.dstage2_mmu.stage2_tlb.read_accesses            0                       # DTB read accesses
system.cpu0.dstage2_mmu.stage2_tlb.write_accesses            0                       # DTB write accesses
system.cpu0.dstage2_mmu.stage2_tlb.inst_accesses            0                       # ITB inst accesses
system.cpu0.dstage2_mmu.stage2_tlb.hits             0                       # DTB hits
system.cpu0.dstage2_mmu.stage2_tlb.misses            0                       # DTB misses
system.cpu0.dstage2_mmu.stage2_tlb.accesses            0                       # DTB accesses
system.cpu0.dtb.walker.walks                        0                       # Table walker walks requested
system.cpu0.dtb.walker.walkRequestOrigin_Requested::Data            0                       # Table walker requests started/completed, data/inst
system.cpu0.dtb.walker.walkRequestOrigin_Requested::Inst            0                       # Table walker requests started/completed, data/inst
system.cpu0.dtb.walker.walkRequestOrigin_Requested::total            0                       # Table walker requests started/completed, data/inst
system.cpu0.dtb.walker.walkRequestOrigin_Completed::Data            0                       # Table walker requests started/completed, data/inst
system.cpu0.dtb.walker.walkRequestOrigin_Completed::Inst            0                       # Table walker requests started/completed, data/inst
system.cpu0.dtb.walker.walkRequestOrigin_Completed::total            0                       # Table walker requests started/completed, data/inst
system.cpu0.dtb.walker.walkRequestOrigin::total            0                       # Table walker requests started/completed, data/inst
system.cpu0.dtb.inst_hits                           0                       # ITB inst hits
system.cpu0.dtb.inst_misses                         0                       # ITB inst misses
system.cpu0.dtb.read_hits                           0                       # DTB read hits
system.cpu0.dtb.read_misses                         0                       # DTB read misses
system.cpu0.dtb.write_hits                          0                       # DTB write hits
system.cpu0.dtb.write_misses                        0                       # DTB write misses
system.cpu0.dtb.flush_tlb                           0                       # Number of times complete TLB was flushed
system.cpu0.dtb.flush_tlb_mva                       0                       # Number of times TLB was flushed by MVA
system.cpu0.dtb.flush_tlb_mva_asid                  0                       # Number of times TLB was flushed by MVA & ASID
system.cpu0.dtb.flush_tlb_asid                      0                       # Number of times TLB was flushed by ASID
system.cpu0.dtb.flush_entries                       0                       # Number of entries that have been flushed from TLB
system.cpu0.dtb.align_faults                        0                       # Number of TLB faults due to alignment restrictions
system.cpu0.dtb.prefetch_faults                     0                       # Number of TLB faults due to prefetch
system.cpu0.dtb.domain_faults                       0                       # Number of TLB faults due to domain restrictions
system.cpu0.dtb.perms_faults                        0                       # Number of TLB faults due to permissions restrictions
system.cpu0.dtb.read_accesses                       0                       # DTB read accesses
system.cpu0.dtb.write_accesses                      0                       # DTB write accesses
system.cpu0.dtb.inst_accesses                       0                       # ITB inst accesses
system.cpu0.dtb.hits                                0                       # DTB hits
system.cpu0.dtb.misses                              0                       # DTB misses
system.cpu0.dtb.accesses                            0                       # DTB accesses
system.cpu0.istage2_mmu.stage2_tlb.walker.walks            0                       # Table walker walks requested
system.cpu0.istage2_mmu.stage2_tlb.walker.walkRequestOrigin_Requested::Data            0                       # Table walker requests started/completed, data/inst
system.cpu0.istage2_mmu.stage2_tlb.walker.walkRequestOrigin_Requested::Inst            0                       # Table walker requests started/completed, data/inst
system.cpu0.istage2_mmu.stage2_tlb.walker.walkRequestOrigin_Requested::total            0                       # Table walker requests started/completed, data/inst
system.cpu0.istage2_mmu.stage2_tlb.walker.walkRequestOrigin_Completed::Data            0                       # Table walker requests started/completed, data/inst
system.cpu0.istage2_mmu.stage2_tlb.walker.walkRequestOrigin_Completed::Inst            0                       # Table walker requests started/completed, data/inst
system.cpu0.istage2_mmu.stage2_tlb.walker.walkRequestOrigin_Completed::total            0                       # Table walker requests started/completed, data/inst
system.cpu0.istage2_mmu.stage2_tlb.walker.walkRequestOrigin::total            0                       # Table walker requests started/completed, data/inst
system.cpu0.istage2_mmu.stage2_tlb.inst_hits            0                       # ITB inst hits
system.cpu0.istage2_mmu.stage2_tlb.inst_misses            0                       # ITB inst misses
system.cpu0.istage2_mmu.stage2_tlb.read_hits            0                       # DTB read hits
system.cpu0.istage2_mmu.stage2_tlb.read_misses            0                       # DTB read misses
system.cpu0.istage2_mmu.stage2_tlb.write_hits            0                       # DTB write hits
system.cpu0.istage2_mmu.stage2_tlb.write_misses            0                       # DTB write misses
system.cpu0.istage2_mmu.stage2_tlb.flush_tlb            0                       # Number of times complete TLB was flushed
system.cpu0.istage2_mmu.stage2_tlb.flush_tlb_mva            0                       # Number of times TLB was flushed by MVA
system.cpu0.istage2_mmu.stage2_tlb.flush_tlb_mva_asid            0                       # Number of times TLB was flushed by MVA & ASID
system.cpu0.istage2_mmu.stage2_tlb.flush_tlb_asid            0                       # Number of times TLB was flushed by ASID
system.cpu0.istage2_mmu.stage2_tlb.flush_entries            0                       # Number of entries that have been flushed from TLB
system.cpu0.istage2_mmu.stage2_tlb.align_faults            0                       # Number of TLB faults due to alignment restrictions
system.cpu0.istage2_mmu.stage2_tlb.prefetch_faults            0                       # Number of TLB faults due to prefetch
system.cpu0.istage2_mmu.stage2_tlb.domain_faults            0                       # Number of TLB faults due to domain restrictions
system.cpu0.istage2_mmu.stage2_tlb.perms_faults            0                       # Number of TLB faults due to permissions restrictions
system.cpu0.istage2_mmu.stage2_tlb.read_accesses            0                       # DTB read accesses
system.cpu0.istage2_mmu.stage2_tlb.write_accesses            0                       # DTB write accesses
system.cpu0.istage2_mmu.stage2_tlb.inst_accesses            0                       # ITB inst accesses
system.cpu0.istage2_mmu.stage2_tlb.hits             0                       # DTB hits
system.cpu0.istage2_mmu.stage2_tlb.misses            0                       # DTB misses
system.cpu0.istage2_mmu.stage2_tlb.accesses            0                       # DTB accesses
system.cpu0.itb.walker.walks                        0                       # Table walker walks requested
system.cpu0.itb.walker.walkRequestOrigin_Requested::Data            0                       # Table walker requests started/completed, data/inst
system.cpu0.itb.walker.walkRequestOrigin_Requested::Inst            0                       # Table walker requests started/completed, data/inst
system.cpu0.itb.walker.walkRequestOrigin_Requested::total            0                       # Table walker requests started/completed, data/inst
system.cpu0.itb.walker.walkRequestOrigin_Completed::Data            0                       # Table walker requests started/completed, data/inst
system.cpu0.itb.walker.walkRequestOrigin_Completed::Inst            0                       # Table walker requests started/completed, data/inst
system.cpu0.itb.walker.walkRequestOrigin_Completed::total            0                       # Table walker requests started/completed, data/inst
system.cpu0.itb.walker.walkRequestOrigin::total            0                       # Table walker requests started/completed, data/inst
system.cpu0.itb.inst_hits                           0                       # ITB inst hits
system.cpu0.itb.inst_misses                         0                       # ITB inst misses
system.cpu0.itb.read_hits                           0                       # DTB read hits
system.cpu0.itb.read_misses                         0                       # DTB read misses
system.cpu0.itb.write_hits                          0                       # DTB write hits
system.cpu0.itb.write_misses                        0                       # DTB write misses
system.cpu0.itb.flush_tlb                           0                       # Number of times complete TLB was flushed
system.cpu0.itb.flush_tlb_mva                       0                       # Number of times TLB was flushed by MVA
system.cpu0.itb.flush_tlb_mva_asid                  0                       # Number of times TLB was flushed by MVA & ASID
system.cpu0.itb.flush_tlb_asid                      0                       # Number of times TLB was flushed by ASID
system.cpu0.itb.flush_entries                       0                       # Number of entries that have been flushed from TLB
system.cpu0.itb.align_faults                        0                       # Number of TLB faults due to alignment restrictions
system.cpu0.itb.prefetch_faults                     0                       # Number of TLB faults due to prefetch
system.cpu0.itb.domain_faults                       0                       # Number of TLB faults due to domain restrictions
system.cpu0.itb.perms_faults                        0                       # Number of TLB faults due to permissions restrictions
system.cpu0.itb.read_accesses                       0                       # DTB read accesses
system.cpu0.itb.write_accesses                      0                       # DTB write accesses
system.cpu0.itb.inst_accesses                       0                       # ITB inst accesses
system.cpu0.itb.hits                                0                       # DTB hits
system.cpu0.itb.misses                              0                       # DTB misses
system.cpu0.itb.accesses                            0                       # DTB accesses
system.cpu0.workload.num_syscalls               50113                       # Number of system calls
system.cpu0.numCycles                        16035931                       # number of cpu cycles simulated
system.cpu0.numWorkItemsStarted                     0                       # number of work items this cpu started
system.cpu0.numWorkItemsCompleted                   0                       # number of work items this cpu completed
system.cpu0.fetch.icacheStallCycles              8262                       # Number of cycles fetch is stalled on an Icache miss
system.cpu0.fetch.Insts                      40034938                       # Number of instructions fetch has processed
system.cpu0.fetch.Branches                    8006777                       # Number of branches that fetch encountered
system.cpu0.fetch.predictedBranches           8005044                       # Number of branches that fetch has predicted taken
system.cpu0.fetch.Cycles                     16018589                       # Number of cycles fetch has run and was not squashing or blocked
system.cpu0.fetch.SquashCycles                   1283                       # Number of cycles fetch has spent squashing
system.cpu0.fetch.PendingTrapStallCycles          162                       # Number of stall cycles due to pending traps
system.cpu0.fetch.CacheLines                     2002                       # Number of cache lines fetched
system.cpu0.fetch.IcacheSquashes                  248                       # Number of outstanding Icache misses that were squashed
system.cpu0.fetch.rateDist::samples          16027654                       # Number of instructions fetched each cycle (Total)
system.cpu0.fetch.rateDist::mean             2.498138                       # Number of instructions fetched each cycle (Total)
system.cpu0.fetch.rateDist::stdev            0.504769                       # Number of instructions fetched each cycle (Total)
system.cpu0.fetch.rateDist::underflows              0      0.00%      0.00% # Number of instructions fetched each cycle (Total)
system.cpu0.fetch.rateDist::0                   12605      0.08%      0.08% # Number of instructions fetched each cycle (Total)
system.cpu0.fetch.rateDist::1                     609      0.00%      0.08% # Number of instructions fetched each cycle (Total)
system.cpu0.fetch.rateDist::2                 8004636     49.94%     50.03% # Number of instructions fetched each cycle (Total)
system.cpu0.fetch.rateDist::3                 8009804     49.97%    100.00% # Number of instructions fetched each cycle (Total)
system.cpu0.fetch.rateDist::overflows               0      0.00%    100.00% # Number of instructions fetched each cycle (Total)
system.cpu0.fetch.rateDist::min_value               0                       # Number of instructions fetched each cycle (Total)
system.cpu0.fetch.rateDist::max_value               3                       # Number of instructions fetched each cycle (Total)
system.cpu0.fetch.rateDist::total            16027654                       # Number of instructions fetched each cycle (Total)
system.cpu0.fetch.branchRate                 0.499302                       # Number of branch fetches per cycle
system.cpu0.fetch.rate                       2.496577                       # Number of inst fetches per cycle
system.cpu0.decode.IdleCycles                    7786                       # Number of cycles decode is idle
system.cpu0.decode.BlockedCycles                 5325                       # Number of cycles decode is blocked
system.cpu0.decode.RunCycles                 16013442                       # Number of cycles decode is running
system.cpu0.decode.UnblockCycles                  655                       # Number of cycles decode is unblocking
system.cpu0.decode.SquashCycles                   446                       # Number of cycles decode is squashing
system.cpu0.decode.BranchResolved                 367                       # Number of times decode resolved a branch
system.cpu0.decode.BranchMispred                  201                       # Number of times decode detected a branch misprediction
system.cpu0.decode.DecodedInsts              40036780                       # Number of instructions handled by decode
system.cpu0.decode.SquashedInsts                  467                       # Number of squashed instructions handled by decode
system.cpu0.rename.SquashCycles                   446                       # Number of cycles rename is squashing
system.cpu0.rename.IdleCycles                    8362                       # Number of cycles rename is idle
system.cpu0.rename.BlockCycles                    585                       # Number of cycles rename is blocking
system.cpu0.rename.serializeStallCycles          2022                       # count of cycles rename stalled for serializing inst
system.cpu0.rename.RunCycles                 16013409                       # Number of cycles rename is running
system.cpu0.rename.UnblockCycles                 2830                       # Number of cycles rename is unblocking
system.cpu0.rename.RenamedInsts              40036072                       # Number of instructions processed by rename
system.cpu0.rename.IQFullEvents                    21                       # Number of times rename has blocked due to IQ full
system.cpu0.rename.LQFullEvents                    11                       # Number of times rename has blocked due to LQ full
system.cpu0.rename.SQFullEvents                  2656                       # Number of times rename has blocked due to SQ full
system.cpu0.rename.RenamedOperands           40037569                       # Number of destination operands rename has renamed
system.cpu0.rename.RenameLookups            184170573                       # Number of register rename lookups that rename has made
system.cpu0.rename.int_rename_lookups        40041344                       # Number of integer rename lookups
system.cpu0.rename.fp_rename_lookups               16                       # Number of floating rename lookups
system.cpu0.rename.CommittedMaps             40031734                       # Number of HB maps that are committed
system.cpu0.rename.UndoneMaps                    5835                       # Number of HB maps that are undone due to squashing
system.cpu0.rename.serializingInsts                52                       # count of serializing insts renamed
system.cpu0.rename.tempSerializingInsts            51                       # count of temporary serializing insts renamed
system.cpu0.rename.skidInsts                     1240                       # count of insts added to the skid buffer
system.cpu0.memDep0.insertedLoads            16009774                       # Number of loads inserted to the mem dependence unit.
system.cpu0.memDep0.insertedStores            8007476                       # Number of stores inserted to the mem dependence unit.
system.cpu0.memDep0.conflictingLoads          8003610                       # Number of conflicting loads.
system.cpu0.memDep0.conflictingStores         8003582                       # Number of conflicting stores.
system.cpu0.iq.iqInstsAdded                  40034731                       # Number of instructions added to the IQ (excludes non-spec)
system.cpu0.iq.iqNonSpecInstsAdded                 74                       # Number of non-speculative instructions added to the IQ
system.cpu0.iq.iqInstsIssued                 40033096                       # Number of instructions issued
system.cpu0.iq.iqSquashedInstsIssued              162                       # Number of squashed instructions issued
system.cpu0.iq.iqSquashedInstsExamined           4070                       # Number of squashed instructions iterated over during squash; mainly for profiling
system.cpu0.iq.iqSquashedOperandsExamined        10250                       # Number of squashed operands that are examined and possibly removed from graph
system.cpu0.iq.iqSquashedNonSpecRemoved             5                       # Number of squashed non-spec instructions that were removed
system.cpu0.iq.issued_per_cycle::samples     16027654                       # Number of insts issued each cycle
system.cpu0.iq.issued_per_cycle::mean        2.497751                       # Number of insts issued each cycle
system.cpu0.iq.issued_per_cycle::stdev       0.710549                       # Number of insts issued each cycle
system.cpu0.iq.issued_per_cycle::underflows            0      0.00%      0.00% # Number of insts issued each cycle
system.cpu0.iq.issued_per_cycle::0              12933      0.08%      0.08% # Number of insts issued each cycle
system.cpu0.iq.issued_per_cycle::1            2003801     12.50%     12.58% # Number of insts issued each cycle
system.cpu0.iq.issued_per_cycle::2            4003465     24.98%     37.56% # Number of insts issued each cycle
system.cpu0.iq.issued_per_cycle::3           10007455     62.44%    100.00% # Number of insts issued each cycle
system.cpu0.iq.issued_per_cycle::overflows            0      0.00%    100.00% # Number of insts issued each cycle
system.cpu0.iq.issued_per_cycle::min_value            0                       # Number of insts issued each cycle
system.cpu0.iq.issued_per_cycle::max_value            3                       # Number of insts issued each cycle
system.cpu0.iq.issued_per_cycle::total       16027654                       # Number of insts issued each cycle
system.cpu0.iq.fu_full::No_OpClass                  0                       # attempts to use FU when none available
system.cpu0.iq.fu_full::IntAlu                      0                       # attempts to use FU when none available
system.cpu0.iq.fu_full::IntMult                     0                       # attempts to use FU when none available
system.cpu0.iq.fu_full::IntDiv                      0                       # attempts to use FU when none available
system.cpu0.iq.fu_full::FloatAdd                    0                       # attempts to use FU when none available
system.cpu0.iq.fu_full::FloatCmp                    0                       # attempts to use FU when none available
system.cpu0.iq.fu_full::FloatCvt                    0                       # attempts to use FU when none available
system.cpu0.iq.fu_full::FloatMult                   0                       # attempts to use FU when none available
system.cpu0.iq.fu_full::FloatDiv                    0                       # attempts to use FU when none available
system.cpu0.iq.fu_full::FloatSqrt                   0                       # attempts to use FU when none available
system.cpu0.iq.fu_full::SimdAdd                     0                       # attempts to use FU when none available
system.cpu0.iq.fu_full::SimdAddAcc                  0                       # attempts to use FU when none available
system.cpu0.iq.fu_full::SimdAlu                     0                       # attempts to use FU when none available
system.cpu0.iq.fu_full::SimdCmp                     0                       # attempts to use FU when none available
system.cpu0.iq.fu_full::SimdCvt                     0                       # attempts to use FU when none available
system.cpu0.iq.fu_full::SimdMisc                    0                       # attempts to use FU when none available
system.cpu0.iq.fu_full::SimdMult                    0                       # attempts to use FU when none available
system.cpu0.iq.fu_full::SimdMultAcc                 0                       # attempts to use FU when none available
system.cpu0.iq.fu_full::SimdShift                   0                       # attempts to use FU when none available
system.cpu0.iq.fu_full::SimdShiftAcc                0                       # attempts to use FU when none available
system.cpu0.iq.fu_full::SimdSqrt                    0                       # attempts to use FU when none available
system.cpu0.iq.fu_full::SimdFloatAdd                0                       # attempts to use FU when none available
system.cpu0.iq.fu_full::SimdFloatAlu                0                       # attempts to use FU when none available
system.cpu0.iq.fu_full::SimdFloatCmp                0                       # attempts to use FU when none available
system.cpu0.iq.fu_full::SimdFloatCvt                0                       # attempts to use FU when none available
system.cpu0.iq.fu_full::SimdFloatDiv                0                       # attempts to use FU when none available
system.cpu0.iq.fu_full::SimdFloatMisc               0                       # attempts to use FU when none available
system.cpu0.iq.fu_full::SimdFloatMult               0                       # attempts to use FU when none available
system.cpu0.iq.fu_full::SimdFloatMultAcc            0                       # attempts to use FU when none available
system.cpu0.iq.fu_full::SimdFloatSqrt               0                       # attempts to use FU when none available
system.cpu0.iq.fu_full::MemRead                     0                       # attempts to use FU when none available
system.cpu0.iq.fu_full::MemWrite                    0                       # attempts to use FU when none available
system.cpu0.iq.fu_full::IprAccess                   0                       # attempts to use FU when none available
system.cpu0.iq.fu_full::InstPrefetch                0                       # attempts to use FU when none available
system.cpu0.iq.FU_type_0::No_OpClass                0      0.00%      0.00% # Type of FU issued
system.cpu0.iq.FU_type_0::IntAlu             16016336     40.01%     40.01% # Type of FU issued
system.cpu0.iq.FU_type_0::IntMult                   6      0.00%     40.01% # Type of FU issued
system.cpu0.iq.FU_type_0::IntDiv                    0      0.00%     40.01% # Type of FU issued
system.cpu0.iq.FU_type_0::FloatAdd                  0      0.00%     40.01% # Type of FU issued
system.cpu0.iq.FU_type_0::FloatCmp                  0      0.00%     40.01% # Type of FU issued
system.cpu0.iq.FU_type_0::FloatCvt                  0      0.00%     40.01% # Type of FU issued
system.cpu0.iq.FU_type_0::FloatMult                 0      0.00%     40.01% # Type of FU issued
system.cpu0.iq.FU_type_0::FloatDiv                  0      0.00%     40.01% # Type of FU issued
system.cpu0.iq.FU_type_0::FloatSqrt                 0      0.00%     40.01% # Type of FU issued
system.cpu0.iq.FU_type_0::SimdAdd                   0      0.00%     40.01% # Type of FU issued
system.cpu0.iq.FU_type_0::SimdAddAcc                0      0.00%     40.01% # Type of FU issued
system.cpu0.iq.FU_type_0::SimdAlu                   0      0.00%     40.01% # Type of FU issued
system.cpu0.iq.FU_type_0::SimdCmp                   0      0.00%     40.01% # Type of FU issued
system.cpu0.iq.FU_type_0::SimdCvt                   0      0.00%     40.01% # Type of FU issued
system.cpu0.iq.FU_type_0::SimdMisc                  0      0.00%     40.01% # Type of FU issued
system.cpu0.iq.FU_type_0::SimdMult                  0      0.00%     40.01% # Type of FU issued
system.cpu0.iq.FU_type_0::SimdMultAcc               0      0.00%     40.01% # Type of FU issued
system.cpu0.iq.FU_type_0::SimdShift                 0      0.00%     40.01% # Type of FU issued
system.cpu0.iq.FU_type_0::SimdShiftAcc              0      0.00%     40.01% # Type of FU issued
system.cpu0.iq.FU_type_0::SimdSqrt                  0      0.00%     40.01% # Type of FU issued
system.cpu0.iq.FU_type_0::SimdFloatAdd              0      0.00%     40.01% # Type of FU issued
system.cpu0.iq.FU_type_0::SimdFloatAlu              0      0.00%     40.01% # Type of FU issued
system.cpu0.iq.FU_type_0::SimdFloatCmp              0      0.00%     40.01% # Type of FU issued
system.cpu0.iq.FU_type_0::SimdFloatCvt              0      0.00%     40.01% # Type of FU issued
system.cpu0.iq.FU_type_0::SimdFloatDiv              0      0.00%     40.01% # Type of FU issued
system.cpu0.iq.FU_type_0::SimdFloatMisc             3      0.00%     40.01% # Type of FU issued
system.cpu0.iq.FU_type_0::SimdFloatMult             0      0.00%     40.01% # Type of FU issued
system.cpu0.iq.FU_type_0::SimdFloatMultAcc            0      0.00%     40.01% # Type of FU issued
system.cpu0.iq.FU_type_0::SimdFloatSqrt             0      0.00%     40.01% # Type of FU issued
system.cpu0.iq.FU_type_0::MemRead            16009469     39.99%     80.00% # Type of FU issued
system.cpu0.iq.FU_type_0::MemWrite            8007282     20.00%    100.00% # Type of FU issued
system.cpu0.iq.FU_type_0::IprAccess                 0      0.00%    100.00% # Type of FU issued
system.cpu0.iq.FU_type_0::InstPrefetch              0      0.00%    100.00% # Type of FU issued
system.cpu0.iq.FU_type_0::total              40033096                       # Type of FU issued
system.cpu0.iq.rate                          2.496462                       # Inst issue rate
system.cpu0.iq.fu_busy_cnt                          0                       # FU busy when requested
system.cpu0.iq.fu_busy_rate                         0                       # FU busy rate (busy events/executed inst)
system.cpu0.iq.int_inst_queue_reads          96093976                       # Number of integer instruction queue reads
system.cpu0.iq.int_inst_queue_writes         40038901                       # Number of integer instruction queue writes
system.cpu0.iq.int_inst_queue_wakeup_accesses     40032371                       # Number of integer instruction queue wakeup accesses
system.cpu0.iq.fp_inst_queue_reads                 32                       # Number of floating instruction queue reads
system.cpu0.iq.fp_inst_queue_writes                16                       # Number of floating instruction queue writes
system.cpu0.iq.fp_inst_queue_wakeup_accesses           16                       # Number of floating instruction queue wakeup accesses
system.cpu0.iq.int_alu_accesses              40033080                       # Number of integer alu accesses
system.cpu0.iq.fp_alu_accesses                     16                       # Number of floating point alu accesses
system.cpu0.iew.lsq.thread0.forwLoads         8003661                       # Number of loads that had data forwarded from stores
system.cpu0.iew.lsq.thread0.invAddrLoads            0                       # Number of loads ignored due to an invalid address
system.cpu0.iew.lsq.thread0.squashedLoads         1058                       # Number of loads squashed
system.cpu0.iew.lsq.thread0.ignoredResponses            3                       # Number of memory responses ignored because the instruction is squashed
system.cpu0.iew.lsq.thread0.memOrderViolation           42                       # Number of memory ordering violations
system.cpu0.iew.lsq.thread0.squashedStores          385                       # Number of stores squashed
system.cpu0.iew.lsq.thread0.invAddrSwpfs            0                       # Number of software prefetches ignored due to an invalid address
system.cpu0.iew.lsq.thread0.blockedLoads            0                       # Number of blocked loads due to partial load-store forwarding
system.cpu0.iew.lsq.thread0.rescheduledLoads            4                       # Number of loads that were rescheduled
system.cpu0.iew.lsq.thread0.cacheBlocked            0                       # Number of times an access to memory failed due to the cache being blocked
system.cpu0.iew.iewIdleCycles                       0                       # Number of cycles IEW is idle
system.cpu0.iew.iewSquashCycles                   446                       # Number of cycles IEW is squashing
system.cpu0.iew.iewBlockCycles                    444                       # Number of cycles IEW is blocking
system.cpu0.iew.iewUnblockCycles                  138                       # Number of cycles IEW is unblocking
system.cpu0.iew.iewDispatchedInsts           40034824                       # Number of instructions dispatched to IQ
system.cpu0.iew.iewDispSquashedInsts              249                       # Number of squashed instructions skipped by dispatch
system.cpu0.iew.iewDispLoadInsts             16009774                       # Number of dispatched load instructions
system.cpu0.iew.iewDispStoreInsts             8007476                       # Number of dispatched store instructions
system.cpu0.iew.iewDispNonSpecInsts                48                       # Number of dispatched non-speculative instructions
system.cpu0.iew.iewIQFullEvents                    12                       # Number of times the IQ has become full, causing a stall
system.cpu0.iew.iewLSQFullEvents                    0                       # Number of times the LSQ has become full, causing a stall
system.cpu0.iew.memOrderViolationEvents            42                       # Number of memory order violations
system.cpu0.iew.predictedTakenIncorrect           115                       # Number of branches that were predicted taken incorrectly
system.cpu0.iew.predictedNotTakenIncorrect          301                       # Number of branches that were predicted not taken incorrectly
system.cpu0.iew.branchMispredicts                 416                       # Number of branch mispredicts detected at execute
system.cpu0.iew.iewExecutedInsts             40032687                       # Number of executed instructions
system.cpu0.iew.iewExecLoadInsts             16009352                       # Number of load instructions executed
system.cpu0.iew.iewExecSquashedInsts              409                       # Number of squashed instructions skipped in execute
system.cpu0.iew.exec_swp                            0                       # number of swp insts executed
system.cpu0.iew.exec_nop                           19                       # number of nop insts executed
system.cpu0.iew.exec_refs                    24016562                       # number of memory reference insts executed
system.cpu0.iew.exec_branches                 8005590                       # Number of branches executed
system.cpu0.iew.exec_forward_branches             843                       # Number of forward branches executed
system.cpu0.iew.exec_backward_branches        8004436                       # Number of backward branches executed
system.cpu0.iew.exec_taken_forward_branches          312                       # Number of forward branches executed that is taken
system.cpu0.iew.exec_nottaken_forward_branches          531                       # Number of forward branches executed that is not taken
system.cpu0.iew.exec_taken_backward_branches      8004195                       # Number of backward branches executed that is taken
system.cpu0.iew.exec_nottaken_backward_branches          241                       # Number of backward branches executed that is not taken
system.cpu0.iew.exec_stores                   8007210                       # Number of stores executed
system.cpu0.iew.exec_rate                    2.496437                       # Inst execution rate
system.cpu0.iew.wb_sent                      40032465                       # cumulative count of insts sent to commit
system.cpu0.iew.wb_count                     40032387                       # cumulative count of insts written-back
system.cpu0.iew.wb_producers                 24017179                       # num instructions producing a value
system.cpu0.iew.wb_consumers                 24027166                       # num instructions consuming a value
system.cpu0.iew.wb_penalized                        0                       # number of instrctions required to write to 'other' IQ
system.cpu0.iew.wb_rate                      2.496418                       # insts written-back per cycle
system.cpu0.iew.wb_fanout                    0.999584                       # average fanout of values written-back
system.cpu0.iew.wb_penalized_rate                   0                       # fraction of instructions written-back that wrote to 'other' IQ
system.cpu0.commit.commitSquashedInsts           4088                       # The number of squashed insts skipped by commit
system.cpu0.commit.commitNonSpecStalls             69                       # The number of times commit has been forced to stall to communicate backwards
system.cpu0.commit.branchMispredicts              388                       # The number of times a branch was mispredicted
system.cpu0.commit.committed_per_cycle::samples     16026902                       # Number of insts commited each cycle
system.cpu0.commit.committed_per_cycle::mean     2.497721                       # Number of insts commited each cycle
system.cpu0.commit.committed_per_cycle::stdev     1.582099                       # Number of insts commited each cycle
system.cpu0.commit.committed_per_cycle::underflows            0      0.00%      0.00% # Number of insts commited each cycle
system.cpu0.commit.committed_per_cycle::0        13796      0.09%      0.09% # Number of insts commited each cycle
system.cpu0.commit.committed_per_cycle::1      8006094     49.95%     50.04% # Number of insts commited each cycle
system.cpu0.commit.committed_per_cycle::2         1169      0.01%     50.05% # Number of insts commited each cycle
system.cpu0.commit.committed_per_cycle::3      2002717     12.50%     62.54% # Number of insts commited each cycle
system.cpu0.commit.committed_per_cycle::4      4001913     24.97%     87.51% # Number of insts commited each cycle
system.cpu0.commit.committed_per_cycle::5      2000995     12.49%    100.00% # Number of insts commited each cycle
system.cpu0.commit.committed_per_cycle::6           78      0.00%    100.00% # Number of insts commited each cycle
system.cpu0.commit.committed_per_cycle::7           63      0.00%    100.00% # Number of insts commited each cycle
system.cpu0.commit.committed_per_cycle::8           77      0.00%    100.00% # Number of insts commited each cycle
system.cpu0.commit.committed_per_cycle::overflows            0      0.00%    100.00% # Number of insts commited each cycle
system.cpu0.commit.committed_per_cycle::min_value            0                       # Number of insts commited each cycle
system.cpu0.commit.committed_per_cycle::max_value            8                       # Number of insts commited each cycle
system.cpu0.commit.committed_per_cycle::total     16026902                       # Number of insts commited each cycle
system.cpu0.commit.committedInsts            40027350                       # Number of instructions committed
system.cpu0.commit.committedOps              40030735                       # Number of ops (including micro ops) committed
system.cpu0.commit.swp_count                        0                       # Number of s/w prefetches committed
system.cpu0.commit.refs                      24015807                       # Number of memory references committed
system.cpu0.commit.loads                     16008716                       # Number of loads committed
system.cpu0.commit.membars                         26                       # Number of memory barriers committed
system.cpu0.commit.branches                   8005277                       # Number of branches committed
system.cpu0.commit.fp_insts                        16                       # Number of committed floating point instructions.
system.cpu0.commit.int_insts                 32025848                       # Number of committed integer instructions.
system.cpu0.commit.function_calls                 154                       # Number of function calls committed.
system.cpu0.commit.op_class_0::No_OpClass            0      0.00%      0.00% # Class of committed instruction
system.cpu0.commit.op_class_0::IntAlu        16014919     40.01%     40.01% # Class of committed instruction
system.cpu0.commit.op_class_0::IntMult              6      0.00%     40.01% # Class of committed instruction
system.cpu0.commit.op_class_0::IntDiv               0      0.00%     40.01% # Class of committed instruction
system.cpu0.commit.op_class_0::FloatAdd             0      0.00%     40.01% # Class of committed instruction
system.cpu0.commit.op_class_0::FloatCmp             0      0.00%     40.01% # Class of committed instruction
system.cpu0.commit.op_class_0::FloatCvt             0      0.00%     40.01% # Class of committed instruction
system.cpu0.commit.op_class_0::FloatMult            0      0.00%     40.01% # Class of committed instruction
system.cpu0.commit.op_class_0::FloatDiv             0      0.00%     40.01% # Class of committed instruction
system.cpu0.commit.op_class_0::FloatSqrt            0      0.00%     40.01% # Class of committed instruction
system.cpu0.commit.op_class_0::SimdAdd              0      0.00%     40.01% # Class of committed instruction
system.cpu0.commit.op_class_0::SimdAddAcc            0      0.00%     40.01% # Class of committed instruction
system.cpu0.commit.op_class_0::SimdAlu              0      0.00%     40.01% # Class of committed instruction
system.cpu0.commit.op_class_0::SimdCmp              0      0.00%     40.01% # Class of committed instruction
system.cpu0.commit.op_class_0::SimdCvt              0      0.00%     40.01% # Class of committed instruction
system.cpu0.commit.op_class_0::SimdMisc             0      0.00%     40.01% # Class of committed instruction
system.cpu0.commit.op_class_0::SimdMult             0      0.00%     40.01% # Class of committed instruction
system.cpu0.commit.op_class_0::SimdMultAcc            0      0.00%     40.01% # Class of committed instruction
system.cpu0.commit.op_class_0::SimdShift            0      0.00%     40.01% # Class of committed instruction
system.cpu0.commit.op_class_0::SimdShiftAcc            0      0.00%     40.01% # Class of committed instruction
system.cpu0.commit.op_class_0::SimdSqrt             0      0.00%     40.01% # Class of committed instruction
system.cpu0.commit.op_class_0::SimdFloatAdd            0      0.00%     40.01% # Class of committed instruction
system.cpu0.commit.op_class_0::SimdFloatAlu            0      0.00%     40.01% # Class of committed instruction
system.cpu0.commit.op_class_0::SimdFloatCmp            0      0.00%     40.01% # Class of committed instruction
system.cpu0.commit.op_class_0::SimdFloatCvt            0      0.00%     40.01% # Class of committed instruction
system.cpu0.commit.op_class_0::SimdFloatDiv            0      0.00%     40.01% # Class of committed instruction
system.cpu0.commit.op_class_0::SimdFloatMisc            3      0.00%     40.01% # Class of committed instruction
system.cpu0.commit.op_class_0::SimdFloatMult            0      0.00%     40.01% # Class of committed instruction
system.cpu0.commit.op_class_0::SimdFloatMultAcc            0      0.00%     40.01% # Class of committed instruction
system.cpu0.commit.op_class_0::SimdFloatSqrt            0      0.00%     40.01% # Class of committed instruction
system.cpu0.commit.op_class_0::MemRead       16008716     39.99%     80.00% # Class of committed instruction
system.cpu0.commit.op_class_0::MemWrite       8007091     20.00%    100.00% # Class of committed instruction
system.cpu0.commit.op_class_0::IprAccess            0      0.00%    100.00% # Class of committed instruction
system.cpu0.commit.op_class_0::InstPrefetch            0      0.00%    100.00% # Class of committed instruction
system.cpu0.commit.op_class_0::total         40030735                       # Class of committed instruction
system.cpu0.commit.bw_lim_events                   77                       # number cycles where commit BW limit reached
system.cpu0.rob.rob_reads                    56061439                       # The number of ROB reads
system.cpu0.rob.rob_writes                   80070402                       # The number of ROB writes
system.cpu0.timesIdled                            250                       # Number of times that the entire CPU went into an idle state and unscheduled itself
system.cpu0.idleCycles                           8277                       # Total number of cycles that the CPU has spent unscheduled due to idling
system.cpu0.committedInsts                   40027350                       # Number of Instructions Simulated
system.cpu0.committedOps                     40030735                       # Number of Ops (including micro ops) Simulated
system.cpu0.cpi                              0.400624                       # CPI: Cycles Per Instruction
system.cpu0.cpi_total                        0.400624                       # CPI: Total CPI of All Threads
system.cpu0.ipc                              2.496104                       # IPC: Instructions Per Cycle
system.cpu0.ipc_total                        2.496104                       # IPC: Total IPC of All Threads
system.cpu0.int_regfile_reads                40035296                       # number of integer regfile reads
system.cpu0.int_regfile_writes               16015293                       # number of integer regfile writes
system.cpu0.fp_regfile_reads                      656                       # number of floating regfile reads
system.cpu0.cc_regfile_reads                168125190                       # number of cc regfile reads
system.cpu0.cc_regfile_writes                24018138                       # number of cc regfile writes
system.cpu0.misc_regfile_reads               24628440                       # number of misc regfile reads
system.cpu0.misc_regfile_writes                    52                       # number of misc regfile writes
system.cpu0.dcache.tags.replacements               34                       # number of replacements
system.cpu0.dcache.tags.tagsinuse          154.557982                       # Cycle average of tags in use
system.cpu0.dcache.tags.total_refs           16009839                       # Total number of references to valid blocks.
system.cpu0.dcache.tags.sampled_refs              208                       # Sample count of references to valid blocks.
system.cpu0.dcache.tags.avg_refs         76970.379808                       # Average number of references to valid blocks.
system.cpu0.dcache.tags.warmup_cycle                0                       # Cycle when the warmup percentage was hit.
system.cpu0.dcache.tags.occ_blocks::cpu0.data   154.557982                       # Average occupied blocks per requestor
system.cpu0.dcache.tags.occ_percent::cpu0.data     0.301871                       # Average percentage of cache occupancy
system.cpu0.dcache.tags.occ_percent::total     0.301871                       # Average percentage of cache occupancy
system.cpu0.dcache.tags.occ_task_id_blocks::1024          174                       # Occupied blocks per task id
system.cpu0.dcache.tags.age_task_id_blocks_1024::0           27                       # Occupied blocks per task id
system.cpu0.dcache.tags.age_task_id_blocks_1024::4          147                       # Occupied blocks per task id
system.cpu0.dcache.tags.occ_task_id_percent::1024     0.339844                       # Percentage of cache occupancy per task id
system.cpu0.dcache.tags.tag_accesses         32025526                       # Number of tag accesses
system.cpu0.dcache.tags.data_accesses        32025526                       # Number of data accesses
system.cpu0.dcache.ReadReq_hits::cpu0.data      8005310                       # number of ReadReq hits
system.cpu0.dcache.ReadReq_hits::total        8005310                       # number of ReadReq hits
system.cpu0.dcache.WriteReq_hits::cpu0.data      8004628                       # number of WriteReq hits
system.cpu0.dcache.WriteReq_hits::total       8004628                       # number of WriteReq hits
system.cpu0.dcache.LoadLockedReq_hits::cpu0.data           22                       # number of LoadLockedReq hits
system.cpu0.dcache.LoadLockedReq_hits::total           22                       # number of LoadLockedReq hits
system.cpu0.dcache.StoreCondReq_hits::cpu0.data           24                       # number of StoreCondReq hits
system.cpu0.dcache.StoreCondReq_hits::total           24                       # number of StoreCondReq hits
system.cpu0.dcache.demand_hits::cpu0.data     16009938                       # number of demand (read+write) hits
system.cpu0.dcache.demand_hits::total        16009938                       # number of demand (read+write) hits
system.cpu0.dcache.overall_hits::cpu0.data     16009938                       # number of overall hits
system.cpu0.dcache.overall_hits::total       16009938                       # number of overall hits
system.cpu0.dcache.ReadReq_misses::cpu0.data          222                       # number of ReadReq misses
system.cpu0.dcache.ReadReq_misses::total          222                       # number of ReadReq misses
system.cpu0.dcache.WriteReq_misses::cpu0.data         2391                       # number of WriteReq misses
system.cpu0.dcache.WriteReq_misses::total         2391                       # number of WriteReq misses
system.cpu0.dcache.LoadLockedReq_misses::cpu0.data            3                       # number of LoadLockedReq misses
system.cpu0.dcache.LoadLockedReq_misses::total            3                       # number of LoadLockedReq misses
system.cpu0.dcache.StoreCondReq_misses::cpu0.data            1                       # number of StoreCondReq misses
system.cpu0.dcache.StoreCondReq_misses::total            1                       # number of StoreCondReq misses
system.cpu0.dcache.demand_misses::cpu0.data         2613                       # number of demand (read+write) misses
system.cpu0.dcache.demand_misses::total          2613                       # number of demand (read+write) misses
system.cpu0.dcache.overall_misses::cpu0.data         2613                       # number of overall misses
system.cpu0.dcache.overall_misses::total         2613                       # number of overall misses
system.cpu0.dcache.ReadReq_miss_latency::cpu0.data      9884489                       # number of ReadReq miss cycles
system.cpu0.dcache.ReadReq_miss_latency::total      9884489                       # number of ReadReq miss cycles
system.cpu0.dcache.WriteReq_miss_latency::cpu0.data    119937500                       # number of WriteReq miss cycles
system.cpu0.dcache.WriteReq_miss_latency::total    119937500                       # number of WriteReq miss cycles
system.cpu0.dcache.LoadLockedReq_miss_latency::cpu0.data       133500                       # number of LoadLockedReq miss cycles
system.cpu0.dcache.LoadLockedReq_miss_latency::total       133500                       # number of LoadLockedReq miss cycles
system.cpu0.dcache.StoreCondReq_miss_latency::cpu0.data         7500                       # number of StoreCondReq miss cycles
system.cpu0.dcache.StoreCondReq_miss_latency::total         7500                       # number of StoreCondReq miss cycles
system.cpu0.dcache.demand_miss_latency::cpu0.data    129821989                       # number of demand (read+write) miss cycles
system.cpu0.dcache.demand_miss_latency::total    129821989                       # number of demand (read+write) miss cycles
system.cpu0.dcache.overall_miss_latency::cpu0.data    129821989                       # number of overall miss cycles
system.cpu0.dcache.overall_miss_latency::total    129821989                       # number of overall miss cycles
system.cpu0.dcache.ReadReq_accesses::cpu0.data      8005532                       # number of ReadReq accesses(hits+misses)
system.cpu0.dcache.ReadReq_accesses::total      8005532                       # number of ReadReq accesses(hits+misses)
system.cpu0.dcache.WriteReq_accesses::cpu0.data      8007019                       # number of WriteReq accesses(hits+misses)
system.cpu0.dcache.WriteReq_accesses::total      8007019                       # number of WriteReq accesses(hits+misses)
system.cpu0.dcache.LoadLockedReq_accesses::cpu0.data           25                       # number of LoadLockedReq accesses(hits+misses)
system.cpu0.dcache.LoadLockedReq_accesses::total           25                       # number of LoadLockedReq accesses(hits+misses)
system.cpu0.dcache.StoreCondReq_accesses::cpu0.data           25                       # number of StoreCondReq accesses(hits+misses)
system.cpu0.dcache.StoreCondReq_accesses::total           25                       # number of StoreCondReq accesses(hits+misses)
system.cpu0.dcache.demand_accesses::cpu0.data     16012551                       # number of demand (read+write) accesses
system.cpu0.dcache.demand_accesses::total     16012551                       # number of demand (read+write) accesses
system.cpu0.dcache.overall_accesses::cpu0.data     16012551                       # number of overall (read+write) accesses
system.cpu0.dcache.overall_accesses::total     16012551                       # number of overall (read+write) accesses
system.cpu0.dcache.ReadReq_miss_rate::cpu0.data     0.000028                       # miss rate for ReadReq accesses
system.cpu0.dcache.ReadReq_miss_rate::total     0.000028                       # miss rate for ReadReq accesses
system.cpu0.dcache.WriteReq_miss_rate::cpu0.data     0.000299                       # miss rate for WriteReq accesses
system.cpu0.dcache.WriteReq_miss_rate::total     0.000299                       # miss rate for WriteReq accesses
system.cpu0.dcache.LoadLockedReq_miss_rate::cpu0.data     0.120000                       # miss rate for LoadLockedReq accesses
system.cpu0.dcache.LoadLockedReq_miss_rate::total     0.120000                       # miss rate for LoadLockedReq accesses
system.cpu0.dcache.StoreCondReq_miss_rate::cpu0.data     0.040000                       # miss rate for StoreCondReq accesses
system.cpu0.dcache.StoreCondReq_miss_rate::total     0.040000                       # miss rate for StoreCondReq accesses
system.cpu0.dcache.demand_miss_rate::cpu0.data     0.000163                       # miss rate for demand accesses
system.cpu0.dcache.demand_miss_rate::total     0.000163                       # miss rate for demand accesses
system.cpu0.dcache.overall_miss_rate::cpu0.data     0.000163                       # miss rate for overall accesses
system.cpu0.dcache.overall_miss_rate::total     0.000163                       # miss rate for overall accesses
system.cpu0.dcache.ReadReq_avg_miss_latency::cpu0.data 44524.725225                       # average ReadReq miss latency
system.cpu0.dcache.ReadReq_avg_miss_latency::total 44524.725225                       # average ReadReq miss latency
system.cpu0.dcache.WriteReq_avg_miss_latency::cpu0.data 50162.066081                       # average WriteReq miss latency
system.cpu0.dcache.WriteReq_avg_miss_latency::total 50162.066081                       # average WriteReq miss latency
system.cpu0.dcache.LoadLockedReq_avg_miss_latency::cpu0.data        44500                       # average LoadLockedReq miss latency
system.cpu0.dcache.LoadLockedReq_avg_miss_latency::total        44500                       # average LoadLockedReq miss latency
system.cpu0.dcache.StoreCondReq_avg_miss_latency::cpu0.data         7500                       # average StoreCondReq miss latency
system.cpu0.dcache.StoreCondReq_avg_miss_latency::total         7500                       # average StoreCondReq miss latency
system.cpu0.dcache.demand_avg_miss_latency::cpu0.data 49683.118638                       # average overall miss latency
system.cpu0.dcache.demand_avg_miss_latency::total 49683.118638                       # average overall miss latency
system.cpu0.dcache.overall_avg_miss_latency::cpu0.data 49683.118638                       # average overall miss latency
system.cpu0.dcache.overall_avg_miss_latency::total 49683.118638                       # average overall miss latency
system.cpu0.dcache.blocked_cycles::no_mshrs            0                       # number of cycles access was blocked
system.cpu0.dcache.blocked_cycles::no_targets            0                       # number of cycles access was blocked
system.cpu0.dcache.blocked::no_mshrs                0                       # number of cycles access was blocked
system.cpu0.dcache.blocked::no_targets              0                       # number of cycles access was blocked
system.cpu0.dcache.avg_blocked_cycles::no_mshrs          nan                       # average number of cycles each access was blocked
system.cpu0.dcache.avg_blocked_cycles::no_targets          nan                       # average number of cycles each access was blocked
system.cpu0.dcache.fast_writes                      0                       # number of fast writes performed
system.cpu0.dcache.cache_copies                     0                       # number of cache copies performed
system.cpu0.dcache.writebacks::writebacks           15                       # number of writebacks
system.cpu0.dcache.writebacks::total               15                       # number of writebacks
system.cpu0.dcache.ReadReq_mshr_hits::cpu0.data           82                       # number of ReadReq MSHR hits
system.cpu0.dcache.ReadReq_mshr_hits::total           82                       # number of ReadReq MSHR hits
system.cpu0.dcache.WriteReq_mshr_hits::cpu0.data         2203                       # number of WriteReq MSHR hits
system.cpu0.dcache.WriteReq_mshr_hits::total         2203                       # number of WriteReq MSHR hits
system.cpu0.dcache.LoadLockedReq_mshr_hits::cpu0.data            3                       # number of LoadLockedReq MSHR hits
system.cpu0.dcache.LoadLockedReq_mshr_hits::total            3                       # number of LoadLockedReq MSHR hits
system.cpu0.dcache.demand_mshr_hits::cpu0.data         2285                       # number of demand (read+write) MSHR hits
system.cpu0.dcache.demand_mshr_hits::total         2285                       # number of demand (read+write) MSHR hits
system.cpu0.dcache.overall_mshr_hits::cpu0.data         2285                       # number of overall MSHR hits
system.cpu0.dcache.overall_mshr_hits::total         2285                       # number of overall MSHR hits
system.cpu0.dcache.ReadReq_mshr_misses::cpu0.data          140                       # number of ReadReq MSHR misses
system.cpu0.dcache.ReadReq_mshr_misses::total          140                       # number of ReadReq MSHR misses
system.cpu0.dcache.WriteReq_mshr_misses::cpu0.data          188                       # number of WriteReq MSHR misses
system.cpu0.dcache.WriteReq_mshr_misses::total          188                       # number of WriteReq MSHR misses
system.cpu0.dcache.StoreCondReq_mshr_misses::cpu0.data            1                       # number of StoreCondReq MSHR misses
system.cpu0.dcache.StoreCondReq_mshr_misses::total            1                       # number of StoreCondReq MSHR misses
system.cpu0.dcache.demand_mshr_misses::cpu0.data          328                       # number of demand (read+write) MSHR misses
system.cpu0.dcache.demand_mshr_misses::total          328                       # number of demand (read+write) MSHR misses
system.cpu0.dcache.overall_mshr_misses::cpu0.data          328                       # number of overall MSHR misses
system.cpu0.dcache.overall_mshr_misses::total          328                       # number of overall MSHR misses
system.cpu0.dcache.ReadReq_mshr_miss_latency::cpu0.data      6145007                       # number of ReadReq MSHR miss cycles
system.cpu0.dcache.ReadReq_mshr_miss_latency::total      6145007                       # number of ReadReq MSHR miss cycles
system.cpu0.dcache.WriteReq_mshr_miss_latency::cpu0.data     10244500                       # number of WriteReq MSHR miss cycles
system.cpu0.dcache.WriteReq_mshr_miss_latency::total     10244500                       # number of WriteReq MSHR miss cycles
system.cpu0.dcache.StoreCondReq_mshr_miss_latency::cpu0.data         4500                       # number of StoreCondReq MSHR miss cycles
system.cpu0.dcache.StoreCondReq_mshr_miss_latency::total         4500                       # number of StoreCondReq MSHR miss cycles
system.cpu0.dcache.demand_mshr_miss_latency::cpu0.data     16389507                       # number of demand (read+write) MSHR miss cycles
system.cpu0.dcache.demand_mshr_miss_latency::total     16389507                       # number of demand (read+write) MSHR miss cycles
system.cpu0.dcache.overall_mshr_miss_latency::cpu0.data     16389507                       # number of overall MSHR miss cycles
system.cpu0.dcache.overall_mshr_miss_latency::total     16389507                       # number of overall MSHR miss cycles
system.cpu0.dcache.ReadReq_mshr_miss_rate::cpu0.data     0.000017                       # mshr miss rate for ReadReq accesses
system.cpu0.dcache.ReadReq_mshr_miss_rate::total     0.000017                       # mshr miss rate for ReadReq accesses
system.cpu0.dcache.WriteReq_mshr_miss_rate::cpu0.data     0.000023                       # mshr miss rate for WriteReq accesses
system.cpu0.dcache.WriteReq_mshr_miss_rate::total     0.000023                       # mshr miss rate for WriteReq accesses
system.cpu0.dcache.StoreCondReq_mshr_miss_rate::cpu0.data     0.040000                       # mshr miss rate for StoreCondReq accesses
system.cpu0.dcache.StoreCondReq_mshr_miss_rate::total     0.040000                       # mshr miss rate for StoreCondReq accesses
system.cpu0.dcache.demand_mshr_miss_rate::cpu0.data     0.000020                       # mshr miss rate for demand accesses
system.cpu0.dcache.demand_mshr_miss_rate::total     0.000020                       # mshr miss rate for demand accesses
system.cpu0.dcache.overall_mshr_miss_rate::cpu0.data     0.000020                       # mshr miss rate for overall accesses
system.cpu0.dcache.overall_mshr_miss_rate::total     0.000020                       # mshr miss rate for overall accesses
system.cpu0.dcache.ReadReq_avg_mshr_miss_latency::cpu0.data 43892.907143                       # average ReadReq mshr miss latency
system.cpu0.dcache.ReadReq_avg_mshr_miss_latency::total 43892.907143                       # average ReadReq mshr miss latency
system.cpu0.dcache.WriteReq_avg_mshr_miss_latency::cpu0.data 54492.021277                       # average WriteReq mshr miss latency
system.cpu0.dcache.WriteReq_avg_mshr_miss_latency::total 54492.021277                       # average WriteReq mshr miss latency
system.cpu0.dcache.StoreCondReq_avg_mshr_miss_latency::cpu0.data         4500                       # average StoreCondReq mshr miss latency
system.cpu0.dcache.StoreCondReq_avg_mshr_miss_latency::total         4500                       # average StoreCondReq mshr miss latency
system.cpu0.dcache.demand_avg_mshr_miss_latency::cpu0.data 49968.009146                       # average overall mshr miss latency
system.cpu0.dcache.demand_avg_mshr_miss_latency::total 49968.009146                       # average overall mshr miss latency
system.cpu0.dcache.overall_avg_mshr_miss_latency::cpu0.data 49968.009146                       # average overall mshr miss latency
system.cpu0.dcache.overall_avg_mshr_miss_latency::total 49968.009146                       # average overall mshr miss latency
system.cpu0.dcache.no_allocate_misses               0                       # Number of misses that were no-allocate
system.cpu0.icache.tags.replacements               65                       # number of replacements
system.cpu0.icache.tags.tagsinuse          286.804639                       # Cycle average of tags in use
system.cpu0.icache.tags.total_refs               1560                       # Total number of references to valid blocks.
system.cpu0.icache.tags.sampled_refs              382                       # Sample count of references to valid blocks.
system.cpu0.icache.tags.avg_refs             4.083770                       # Average number of references to valid blocks.
system.cpu0.icache.tags.warmup_cycle                0                       # Cycle when the warmup percentage was hit.
system.cpu0.icache.tags.occ_blocks::cpu0.inst   286.804639                       # Average occupied blocks per requestor
system.cpu0.icache.tags.occ_percent::cpu0.inst     0.560165                       # Average percentage of cache occupancy
system.cpu0.icache.tags.occ_percent::total     0.560165                       # Average percentage of cache occupancy
system.cpu0.icache.tags.occ_task_id_blocks::1024          317                       # Occupied blocks per task id
system.cpu0.icache.tags.age_task_id_blocks_1024::0           42                       # Occupied blocks per task id
system.cpu0.icache.tags.age_task_id_blocks_1024::4          275                       # Occupied blocks per task id
system.cpu0.icache.tags.occ_task_id_percent::1024     0.619141                       # Percentage of cache occupancy per task id
system.cpu0.icache.tags.tag_accesses             4386                       # Number of tag accesses
system.cpu0.icache.tags.data_accesses            4386                       # Number of data accesses
system.cpu0.icache.ReadReq_hits::cpu0.inst         1560                       # number of ReadReq hits
system.cpu0.icache.ReadReq_hits::total           1560                       # number of ReadReq hits
system.cpu0.icache.demand_hits::cpu0.inst         1560                       # number of demand (read+write) hits
system.cpu0.icache.demand_hits::total            1560                       # number of demand (read+write) hits
system.cpu0.icache.overall_hits::cpu0.inst         1560                       # number of overall hits
system.cpu0.icache.overall_hits::total           1560                       # number of overall hits
system.cpu0.icache.ReadReq_misses::cpu0.inst          442                       # number of ReadReq misses
system.cpu0.icache.ReadReq_misses::total          442                       # number of ReadReq misses
system.cpu0.icache.demand_misses::cpu0.inst          442                       # number of demand (read+write) misses
system.cpu0.icache.demand_misses::total           442                       # number of demand (read+write) misses
system.cpu0.icache.overall_misses::cpu0.inst          442                       # number of overall misses
system.cpu0.icache.overall_misses::total          442                       # number of overall misses
system.cpu0.icache.ReadReq_miss_latency::cpu0.inst     23120998                       # number of ReadReq miss cycles
system.cpu0.icache.ReadReq_miss_latency::total     23120998                       # number of ReadReq miss cycles
system.cpu0.icache.demand_miss_latency::cpu0.inst     23120998                       # number of demand (read+write) miss cycles
system.cpu0.icache.demand_miss_latency::total     23120998                       # number of demand (read+write) miss cycles
system.cpu0.icache.overall_miss_latency::cpu0.inst     23120998                       # number of overall miss cycles
system.cpu0.icache.overall_miss_latency::total     23120998                       # number of overall miss cycles
system.cpu0.icache.ReadReq_accesses::cpu0.inst         2002                       # number of ReadReq accesses(hits+misses)
system.cpu0.icache.ReadReq_accesses::total         2002                       # number of ReadReq accesses(hits+misses)
system.cpu0.icache.demand_accesses::cpu0.inst         2002                       # number of demand (read+write) accesses
system.cpu0.icache.demand_accesses::total         2002                       # number of demand (read+write) accesses
system.cpu0.icache.overall_accesses::cpu0.inst         2002                       # number of overall (read+write) accesses
system.cpu0.icache.overall_accesses::total         2002                       # number of overall (read+write) accesses
[...]
system.l2.demand_mshr_miss_rate::cpu4.data     0.424279                       # mshr miss rate for demand accesses
system.l2.demand_mshr_miss_rate::total       0.427380                       # mshr miss rate for demand accesses
system.l2.overall_mshr_miss_rate::cpu0.inst     0.921466                       # mshr miss rate for overall accesses
system.l2.overall_mshr_miss_rate::cpu0.data     0.876972                       # mshr miss rate for overall accesses
system.l2.overall_mshr_miss_rate::cpu1.inst     0.107538                       # mshr miss rate for overall accesses
system.l2.overall_mshr_miss_rate::cpu1.data     0.414411                       # mshr miss rate for overall accesses
system.l2.overall_mshr_miss_rate::cpu2.inst     0.079477                       # mshr miss rate for overall accesses
system.l2.overall_mshr_miss_rate::cpu2.data     0.465301                       # mshr miss rate for overall accesses
system.l2.overall_mshr_miss_rate::cpu3.inst     0.024802                       # mshr miss rate for overall accesses
system.l2.overall_mshr_miss_rate::cpu3.data     0.497909                       # mshr miss rate for overall accesses
system.l2.overall_mshr_miss_rate::cpu4.inst     0.114183                       # mshr miss rate for overall accesses
system.l2.overall_mshr_miss_rate::cpu4.data     0.424279                       # mshr miss rate for overall accesses
system.l2.overall_mshr_miss_rate::total      0.427380                       # mshr miss rate for overall accesses
system.l2.ReadReq_avg_mshr_miss_latency::cpu0.inst 41022.727273                       # average ReadReq mshr miss latency
system.l2.ReadReq_avg_mshr_miss_latency::cpu0.data 42244.680851                       # average ReadReq mshr miss latency
system.l2.ReadReq_avg_mshr_miss_latency::cpu1.inst 40901.869159                       # average ReadReq mshr miss latency
system.l2.ReadReq_avg_mshr_miss_latency::cpu1.data 40534.722222                       # average ReadReq mshr miss latency
system.l2.ReadReq_avg_mshr_miss_latency::cpu2.inst 40689.873418                       # average ReadReq mshr miss latency
system.l2.ReadReq_avg_mshr_miss_latency::cpu2.data 40521.114658                       # average ReadReq mshr miss latency
system.l2.ReadReq_avg_mshr_miss_latency::cpu3.inst        40660                       # average ReadReq mshr miss latency
system.l2.ReadReq_avg_mshr_miss_latency::cpu3.data 40513.614361                       # average ReadReq mshr miss latency
system.l2.ReadReq_avg_mshr_miss_latency::cpu4.inst 40636.842105                       # average ReadReq mshr miss latency
system.l2.ReadReq_avg_mshr_miss_latency::cpu4.data 40520.361991                       # average ReadReq mshr miss latency
system.l2.ReadReq_avg_mshr_miss_latency::total 40547.300891                       # average ReadReq mshr miss latency
system.l2.UpgradeReq_avg_mshr_miss_latency::cpu0.data        44000                       # average UpgradeReq mshr miss latency
system.l2.UpgradeReq_avg_mshr_miss_latency::cpu1.data 40628.259087                       # average UpgradeReq mshr miss latency
system.l2.UpgradeReq_avg_mshr_miss_latency::cpu2.data 40581.552776                       # average UpgradeReq mshr miss latency
system.l2.UpgradeReq_avg_mshr_miss_latency::cpu3.data 40582.100404                       # average UpgradeReq mshr miss latency
system.l2.UpgradeReq_avg_mshr_miss_latency::cpu4.data 40602.794134                       # average UpgradeReq mshr miss latency
system.l2.UpgradeReq_avg_mshr_miss_latency::total 40595.545929                       # average UpgradeReq mshr miss latency
system.l2.SCUpgradeReq_avg_mshr_miss_latency::cpu1.data 40527.022330                       # average SCUpgradeReq mshr miss latency
system.l2.SCUpgradeReq_avg_mshr_miss_latency::cpu2.data 40520.792101                       # average SCUpgradeReq mshr miss latency
system.l2.SCUpgradeReq_avg_mshr_miss_latency::cpu3.data 40519.507939                       # average SCUpgradeReq mshr miss latency
system.l2.SCUpgradeReq_avg_mshr_miss_latency::cpu4.data 40516.911368                       # average SCUpgradeReq mshr miss latency
system.l2.SCUpgradeReq_avg_mshr_miss_latency::total 40520.434996                       # average SCUpgradeReq mshr miss latency
system.l2.ReadExReq_avg_mshr_miss_latency::cpu0.data 40779.891304                       # average ReadExReq mshr miss latency
system.l2.ReadExReq_avg_mshr_miss_latency::cpu1.data 41043.478261                       # average ReadExReq mshr miss latency
system.l2.ReadExReq_avg_mshr_miss_latency::cpu2.data 41058.080808                       # average ReadExReq mshr miss latency
system.l2.ReadExReq_avg_mshr_miss_latency::cpu3.data 40819.642857                       # average ReadExReq mshr miss latency
system.l2.ReadExReq_avg_mshr_miss_latency::cpu4.data 40952.736318                       # average ReadExReq mshr miss latency
system.l2.ReadExReq_avg_mshr_miss_latency::total 40917.082917                       # average ReadExReq mshr miss latency
system.l2.demand_avg_mshr_miss_latency::cpu0.inst 41022.727273                       # average overall mshr miss latency
system.l2.demand_avg_mshr_miss_latency::cpu0.data 41275.179856                       # average overall mshr miss latency
system.l2.demand_avg_mshr_miss_latency::cpu1.inst 40901.869159                       # average overall mshr miss latency
system.l2.demand_avg_mshr_miss_latency::cpu1.data 40568.443804                       # average overall mshr miss latency
system.l2.demand_avg_mshr_miss_latency::cpu2.inst 40689.873418                       # average overall mshr miss latency
system.l2.demand_avg_mshr_miss_latency::cpu2.data 40546.007961                       # average overall mshr miss latency
system.l2.demand_avg_mshr_miss_latency::cpu3.inst        40660                       # average overall mshr miss latency
system.l2.demand_avg_mshr_miss_latency::cpu3.data 40529.973272                       # average overall mshr miss latency
system.l2.demand_avg_mshr_miss_latency::cpu4.inst 40636.842105                       # average overall mshr miss latency
system.l2.demand_avg_mshr_miss_latency::cpu4.data 40545.079636                       # average overall mshr miss latency
system.l2.demand_avg_mshr_miss_latency::total 40570.373372                       # average overall mshr miss latency
system.l2.overall_avg_mshr_miss_latency::cpu0.inst 41022.727273                       # average overall mshr miss latency
system.l2.overall_avg_mshr_miss_latency::cpu0.data 41275.179856                       # average overall mshr miss latency
system.l2.overall_avg_mshr_miss_latency::cpu1.inst 40901.869159                       # average overall mshr miss latency
system.l2.overall_avg_mshr_miss_latency::cpu1.data 40568.443804                       # average overall mshr miss latency
system.l2.overall_avg_mshr_miss_latency::cpu2.inst 40689.873418                       # average overall mshr miss latency
system.l2.overall_avg_mshr_miss_latency::cpu2.data 40546.007961                       # average overall mshr miss latency
system.l2.overall_avg_mshr_miss_latency::cpu3.inst        40660                       # average overall mshr miss latency
system.l2.overall_avg_mshr_miss_latency::cpu3.data 40529.973272                       # average overall mshr miss latency
system.l2.overall_avg_mshr_miss_latency::cpu4.inst 40636.842105                       # average overall mshr miss latency
system.l2.overall_avg_mshr_miss_latency::cpu4.data 40545.079636                       # average overall mshr miss latency
system.l2.overall_avg_mshr_miss_latency::total 40570.373372                       # average overall mshr miss latency
system.l2.no_allocate_misses                        0                       # Number of misses that were no-allocate
system.membus.trans_dist::ReadReq               15042                       # Transaction distribution
system.membus.trans_dist::ReadResp              15042                       # Transaction distribution
system.membus.trans_dist::Writeback               310                       # Transaction distribution
system.membus.trans_dist::UpgradeReq           163936                       # Transaction distribution
system.membus.trans_dist::SCUpgradeReq         126050                       # Transaction distribution
system.membus.trans_dist::UpgradeResp          145016                       # Transaction distribution
system.membus.trans_dist::SCUpgradeFailReq           33                       # Transaction distribution
system.membus.trans_dist::ReadExReq              1432                       # Transaction distribution
system.membus.trans_dist::ReadExResp              999                       # Transaction distribution
system.membus.pkt_count_system.l2.mem_side::system.physmem.port       467860                       # Packet count per connected master and slave (bytes)
system.membus.pkt_count::total                 467860                       # Packet count per connected master and slave (bytes)
system.membus.pkt_size_system.l2.mem_side::system.physmem.port      1046464                       # Cumulative packet size per connected master and slave (bytes)
system.membus.pkt_size::total                 1046464                       # Cumulative packet size per connected master and slave (bytes)
system.membus.snoops                           145436                       # Total snoops (count)
system.membus.snoop_fanout::samples            307764                       # Request fanout histogram
system.membus.snoop_fanout::mean                    0                       # Request fanout histogram
system.membus.snoop_fanout::stdev                   0                       # Request fanout histogram
system.membus.snoop_fanout::underflows              0      0.00%      0.00% # Request fanout histogram
system.membus.snoop_fanout::0                  307764    100.00%    100.00% # Request fanout histogram
system.membus.snoop_fanout::1                       0      0.00%    100.00% # Request fanout histogram
system.membus.snoop_fanout::overflows               0      0.00%    100.00% # Request fanout histogram
system.membus.snoop_fanout::min_value               0                       # Request fanout histogram
system.membus.snoop_fanout::max_value               0                       # Request fanout histogram
system.membus.snoop_fanout::total              307764                       # Request fanout histogram
system.membus.reqLayer0.occupancy           240459164                       # Layer occupancy (ticks)
system.membus.reqLayer0.utilization               1.5                       # Layer utilization (%)
system.membus.respLayer1.occupancy          300943894                       # Layer occupancy (ticks)
system.membus.respLayer1.utilization              1.9                       # Layer utilization (%)
system.tol2bus.trans_dist::ReadReq             559037                       # Transaction distribution
system.tol2bus.trans_dist::ReadResp            558983                       # Transaction distribution
system.tol2bus.trans_dist::ReadRespWithInvalidate           54                       # Transaction distribution
system.tol2bus.trans_dist::Writeback             1763                       # Transaction distribution
system.tol2bus.trans_dist::UpgradeReq          163938                       # Transaction distribution
system.tol2bus.trans_dist::SCUpgradeReq        126053                       # Transaction distribution
system.tol2bus.trans_dist::UpgradeResp         289991                       # Transaction distribution
system.tol2bus.trans_dist::SCUpgradeFailReq        11234                       # Transaction distribution
system.tol2bus.trans_dist::UpgradeFailResp        11234                       # Transaction distribution
system.tol2bus.trans_dist::ReadExReq             4814                       # Transaction distribution
system.tol2bus.trans_dist::ReadExResp            4814                       # Transaction distribution
system.tol2bus.pkt_count_system.cpu0.icache.mem_side::system.l2.cpu_side          764                       # Packet count per connected master and slave (bytes)
system.tol2bus.pkt_count_system.cpu0.dcache.mem_side::system.l2.cpu_side          663                       # Packet count per connected master and slave (bytes)
system.tol2bus.pkt_count_system.cpu1.icache.mem_side::system.l2.cpu_side         1990                       # Packet count per connected master and slave (bytes)
system.tol2bus.pkt_count_system.cpu1.dcache.mem_side::system.l2.cpu_side       190823                       # Packet count per connected master and slave (bytes)
system.tol2bus.pkt_count_system.cpu2.icache.mem_side::system.l2.cpu_side         1988                       # Packet count per connected master and slave (bytes)
system.tol2bus.pkt_count_system.cpu2.dcache.mem_side::system.l2.cpu_side       288577                       # Packet count per connected master and slave (bytes)
system.tol2bus.pkt_count_system.cpu3.icache.mem_side::system.l2.cpu_side         2016                       # Packet count per connected master and slave (bytes)
system.tol2bus.pkt_count_system.cpu3.dcache.mem_side::system.l2.cpu_side       281837                       # Packet count per connected master and slave (bytes)
system.tol2bus.pkt_count_system.cpu4.icache.mem_side::system.l2.cpu_side         1664                       # Packet count per connected master and slave (bytes)
system.tol2bus.pkt_count_system.cpu4.dcache.mem_side::system.l2.cpu_side       279076                       # Packet count per connected master and slave (bytes)
system.tol2bus.pkt_count::total               1049398                       # Packet count per connected master and slave (bytes)
system.tol2bus.pkt_size_system.cpu0.icache.mem_side::system.l2.cpu_side        24448                       # Cumulative packet size per connected master and slave (bytes)
system.tol2bus.pkt_size_system.cpu0.dcache.mem_side::system.l2.cpu_side        21248                       # Cumulative packet size per connected master and slave (bytes)
system.tol2bus.pkt_size_system.cpu1.icache.mem_side::system.l2.cpu_side        63680                       # Cumulative packet size per connected master and slave (bytes)
system.tol2bus.pkt_size_system.cpu1.dcache.mem_side::system.l2.cpu_side       334528                       # Cumulative packet size per connected master and slave (bytes)
system.tol2bus.pkt_size_system.cpu2.icache.mem_side::system.l2.cpu_side        63616                       # Cumulative packet size per connected master and slave (bytes)
system.tol2bus.pkt_size_system.cpu2.dcache.mem_side::system.l2.cpu_side       623936                       # Cumulative packet size per connected master and slave (bytes)
system.tol2bus.pkt_size_system.cpu3.icache.mem_side::system.l2.cpu_side        64512                       # Cumulative packet size per connected master and slave (bytes)
system.tol2bus.pkt_size_system.cpu3.dcache.mem_side::system.l2.cpu_side       714176                       # Cumulative packet size per connected master and slave (bytes)
system.tol2bus.pkt_size_system.cpu4.icache.mem_side::system.l2.cpu_side        53248                       # Cumulative packet size per connected master and slave (bytes)
system.tol2bus.pkt_size_system.cpu4.dcache.mem_side::system.l2.cpu_side       551872                       # Cumulative packet size per connected master and slave (bytes)
system.tol2bus.pkt_size::total                2515264                       # Cumulative packet size per connected master and slave (bytes)
system.tol2bus.snoops                          682517                       # Total snoops (count)
system.tol2bus.snoop_fanout::samples           866839                       # Request fanout histogram
system.tol2bus.snoop_fanout::mean                   9                       # Request fanout histogram
system.tol2bus.snoop_fanout::stdev                  0                       # Request fanout histogram
system.tol2bus.snoop_fanout::underflows             0      0.00%      0.00% # Request fanout histogram
system.tol2bus.snoop_fanout::0                      0      0.00%      0.00% # Request fanout histogram
system.tol2bus.snoop_fanout::1                      0      0.00%      0.00% # Request fanout histogram
system.tol2bus.snoop_fanout::2                      0      0.00%      0.00% # Request fanout histogram
system.tol2bus.snoop_fanout::3                      0      0.00%      0.00% # Request fanout histogram
system.tol2bus.snoop_fanout::4                      0      0.00%      0.00% # Request fanout histogram
system.tol2bus.snoop_fanout::5                      0      0.00%      0.00% # Request fanout histogram
system.tol2bus.snoop_fanout::6                      0      0.00%      0.00% # Request fanout histogram
system.tol2bus.snoop_fanout::7                      0      0.00%      0.00% # Request fanout histogram
system.tol2bus.snoop_fanout::8                      0      0.00%      0.00% # Request fanout histogram
system.tol2bus.snoop_fanout::9                 866839    100.00%    100.00% # Request fanout histogram
system.tol2bus.snoop_fanout::10                     0      0.00%    100.00% # Request fanout histogram
system.tol2bus.snoop_fanout::overflows              0      0.00%    100.00% # Request fanout histogram
system.tol2bus.snoop_fanout::min_value              9                       # Request fanout histogram
system.tol2bus.snoop_fanout::max_value              9                       # Request fanout histogram
system.tol2bus.snoop_fanout::total             866839                       # Request fanout histogram
system.tol2bus.reqLayer0.occupancy          440692523                       # Layer occupancy (ticks)
system.tol2bus.reqLayer0.utilization              2.7                       # Layer utilization (%)
system.tol2bus.respLayer0.occupancy            573998                       # Layer occupancy (ticks)
system.tol2bus.respLayer0.utilization             0.0                       # Layer utilization (%)
system.tol2bus.respLayer1.occupancy            491993                       # Layer occupancy (ticks)
system.tol2bus.respLayer1.utilization             0.0                       # Layer utilization (%)
system.tol2bus.respLayer4.occupancy           1510444                       # Layer occupancy (ticks)
system.tol2bus.respLayer4.utilization             0.0                       # Layer utilization (%)
system.tol2bus.respLayer5.occupancy         210956555                       # Layer occupancy (ticks)
system.tol2bus.respLayer5.utilization             1.3                       # Layer utilization (%)
system.tol2bus.respLayer8.occupancy           1521898                       # Layer occupancy (ticks)
system.tol2bus.respLayer8.utilization             0.0                       # Layer utilization (%)
system.tol2bus.respLayer9.occupancy         302081495                       # Layer occupancy (ticks)
system.tol2bus.respLayer9.utilization             1.9                       # Layer utilization (%)
system.tol2bus.respLayer12.occupancy          1539405                       # Layer occupancy (ticks)
system.tol2bus.respLayer12.utilization            0.0                       # Layer utilization (%)
system.tol2bus.respLayer13.occupancy        287273459                       # Layer occupancy (ticks)
system.tol2bus.respLayer13.utilization            1.8                       # Layer utilization (%)
system.tol2bus.respLayer16.occupancy          1275406                       # Layer occupancy (ticks)
system.tol2bus.respLayer16.utilization            0.0                       # Layer utilization (%)
system.tol2bus.respLayer17.occupancy        282587904                       # Layer occupancy (ticks)
system.tol2bus.respLayer17.utilization            1.8                       # Layer utilization (%)

---------- End Simulation Statistics   ----------
