
---------- Begin Simulation Statistics ----------
sim_seconds                                  0.017868                       # Number of seconds simulated
sim_ticks                                 17867670000                       # Number of ticks simulated
final_tick                                17867670000                       # Number of ticks from beginning of simulation (restored from checkpoints and never reset)
sim_freq                                 1000000000000                       # Frequency of simulated ticks
host_inst_rate                                 148092                       # Simulator instruction rate (inst/s)
host_op_rate                                   149800                       # Simulator op (including micro ops) rate (op/s)
host_tick_rate                               11999753                       # Simulator tick rate (ticks/s)
host_mem_usage                                 885096                       # Number of bytes of host memory used
host_seconds                                  1489.00                       # Real time elapsed on the host
sim_insts                                   220509130                       # Number of instructions simulated
sim_ops                                     223053328                       # Number of ops (including micro ops) simulated
system.voltage_domain.voltage                       1                       # Voltage in Volts
system.clk_domain.clock                          1000                       # Clock period in ticks
system.physmem.bytes_read::cpu00.inst           22144                       # Number of bytes read from this memory
system.physmem.bytes_read::cpu00.data           19776                       # Number of bytes read from this memory
system.physmem.bytes_read::cpu01.inst            3328                       # Number of bytes read from this memory
system.physmem.bytes_read::cpu01.data            5184                       # Number of bytes read from this memory
system.physmem.bytes_read::cpu02.inst            2560                       # Number of bytes read from this memory
system.physmem.bytes_read::cpu02.data            8512                       # Number of bytes read from this memory
system.physmem.bytes_read::cpu03.inst             896                       # Number of bytes read from this memory
system.physmem.bytes_read::cpu03.data            7488                       # Number of bytes read from this memory
system.physmem.bytes_read::cpu04.inst            3648                       # Number of bytes read from this memory
system.physmem.bytes_read::cpu04.data           13824                       # Number of bytes read from this memory
system.physmem.bytes_read::cpu05.inst            1664                       # Number of bytes read from this memory
system.physmem.bytes_read::cpu05.data           11584                       # Number of bytes read from this memory
system.physmem.bytes_read::cpu06.inst            3904                       # Number of bytes read from this memory
system.physmem.bytes_read::cpu06.data           27392                       # Number of bytes read from this memory
system.physmem.bytes_read::cpu07.inst            2048                       # Number of bytes read from this memory
system.physmem.bytes_read::cpu07.data           28288                       # Number of bytes read from this memory
system.physmem.bytes_read::cpu08.inst             960                       # Number of bytes read from this memory
system.physmem.bytes_read::cpu08.data           33984                       # Number of bytes read from this memory
system.physmem.bytes_read::cpu09.inst            1152                       # Number of bytes read from this memory
system.physmem.bytes_read::cpu09.data           22464                       # Number of bytes read from this memory
system.physmem.bytes_read::cpu10.inst            1536                       # Number of bytes read from this memory
system.physmem.bytes_read::cpu10.data           23680                       # Number of bytes read from this memory
system.physmem.bytes_read::cpu11.inst            1920                       # Number of bytes read from this memory
system.physmem.bytes_read::cpu11.data           18368                       # Number of bytes read from this memory
system.physmem.bytes_read::cpu12.inst             768                       # Number of bytes read from this memory
system.physmem.bytes_read::cpu12.data           14848                       # Number of bytes read from this memory
system.physmem.bytes_read::cpu13.inst            1792                       # Number of bytes read from this memory
system.physmem.bytes_read::cpu13.data           21056                       # Number of bytes read from this memory
system.physmem.bytes_read::cpu14.inst             448                       # Number of bytes read from this memory
system.physmem.bytes_read::cpu14.data           14336                       # Number of bytes read from this memory
system.physmem.bytes_read::cpu15.inst             640                       # Number of bytes read from this memory
system.physmem.bytes_read::cpu15.data           13248                       # Number of bytes read from this memory
system.physmem.bytes_read::cpu16.inst            2176                       # Number of bytes read from this memory
system.physmem.bytes_read::cpu16.data            3328                       # Number of bytes read from this memory
system.physmem.bytes_read::total               338944                       # Number of bytes read from this memory
system.physmem.bytes_inst_read::cpu00.inst        22144                       # Number of instructions bytes read from this memory
system.physmem.bytes_inst_read::cpu01.inst         3328                       # Number of instructions bytes read from this memory
system.physmem.bytes_inst_read::cpu02.inst         2560                       # Number of instructions bytes read from this memory
system.physmem.bytes_inst_read::cpu03.inst          896                       # Number of instructions bytes read from this memory
system.physmem.bytes_inst_read::cpu04.inst         3648                       # Number of instructions bytes read from this memory
system.physmem.bytes_inst_read::cpu05.inst         1664                       # Number of instructions bytes read from this memory
system.physmem.bytes_inst_read::cpu06.inst         3904                       # Number of instructions bytes read from this memory
system.physmem.bytes_inst_read::cpu07.inst         2048                       # Number of instructions bytes read from this memory
system.physmem.bytes_inst_read::cpu08.inst          960                       # Number of instructions bytes read from this memory
system.physmem.bytes_inst_read::cpu09.inst         1152                       # Number of instructions bytes read from this memory
system.physmem.bytes_inst_read::cpu10.inst         1536                       # Number of instructions bytes read from this memory
system.physmem.bytes_inst_read::cpu11.inst         1920                       # Number of instructions bytes read from this memory
system.physmem.bytes_inst_read::cpu12.inst          768                       # Number of instructions bytes read from this memory
system.physmem.bytes_inst_read::cpu13.inst         1792                       # Number of instructions bytes read from this memory
system.physmem.bytes_inst_read::cpu14.inst          448                       # Number of instructions bytes read from this memory
system.physmem.bytes_inst_read::cpu15.inst          640                       # Number of instructions bytes read from this memory
system.physmem.bytes_inst_read::cpu16.inst         2176                       # Number of instructions bytes read from this memory
system.physmem.bytes_inst_read::total           51584                       # Number of instructions bytes read from this memory
system.physmem.bytes_written::writebacks         4224                       # Number of bytes written to this memory
system.physmem.bytes_written::total              4224                       # Number of bytes written to this memory
system.physmem.num_reads::cpu00.inst              346                       # Number of read requests responded to by this memory
system.physmem.num_reads::cpu00.data              309                       # Number of read requests responded to by this memory
system.physmem.num_reads::cpu01.inst               52                       # Number of read requests responded to by this memory
system.physmem.num_reads::cpu01.data               81                       # Number of read requests responded to by this memory
system.physmem.num_reads::cpu02.inst               40                       # Number of read requests responded to by this memory
system.physmem.num_reads::cpu02.data              133                       # Number of read requests responded to by this memory
system.physmem.num_reads::cpu03.inst               14                       # Number of read requests responded to by this memory
system.physmem.num_reads::cpu03.data              117                       # Number of read requests responded to by this memory
system.physmem.num_reads::cpu04.inst               57                       # Number of read requests responded to by this memory
system.physmem.num_reads::cpu04.data              216                       # Number of read requests responded to by this memory
system.physmem.num_reads::cpu05.inst               26                       # Number of read requests responded to by this memory
system.physmem.num_reads::cpu05.data              181                       # Number of read requests responded to by this memory
system.physmem.num_reads::cpu06.inst               61                       # Number of read requests responded to by this memory
system.physmem.num_reads::cpu06.data              428                       # Number of read requests responded to by this memory
system.physmem.num_reads::cpu07.inst               32                       # Number of read requests responded to by this memory
system.physmem.num_reads::cpu07.data              442                       # Number of read requests responded to by this memory
system.physmem.num_reads::cpu08.inst               15                       # Number of read requests responded to by this memory
system.physmem.num_reads::cpu08.data              531                       # Number of read requests responded to by this memory
system.physmem.num_reads::cpu09.inst               18                       # Number of read requests responded to by this memory
system.physmem.num_reads::cpu09.data              351                       # Number of read requests responded to by this memory
system.physmem.num_reads::cpu10.inst               24                       # Number of read requests responded to by this memory
system.physmem.num_reads::cpu10.data              370                       # Number of read requests responded to by this memory
system.physmem.num_reads::cpu11.inst               30                       # Number of read requests responded to by this memory
system.physmem.num_reads::cpu11.data              287                       # Number of read requests responded to by this memory
system.physmem.num_reads::cpu12.inst               12                       # Number of read requests responded to by this memory
system.physmem.num_reads::cpu12.data              232                       # Number of read requests responded to by this memory
system.physmem.num_reads::cpu13.inst               28                       # Number of read requests responded to by this memory
system.physmem.num_reads::cpu13.data              329                       # Number of read requests responded to by this memory
system.physmem.num_reads::cpu14.inst                7                       # Number of read requests responded to by this memory
system.physmem.num_reads::cpu14.data              224                       # Number of read requests responded to by this memory
system.physmem.num_reads::cpu15.inst               10                       # Number of read requests responded to by this memory
system.physmem.num_reads::cpu15.data              207                       # Number of read requests responded to by this memory
system.physmem.num_reads::cpu16.inst               34                       # Number of read requests responded to by this memory
system.physmem.num_reads::cpu16.data               52                       # Number of read requests responded to by this memory
system.physmem.num_reads::total                  5296                       # Number of read requests responded to by this memory
system.physmem.num_writes::writebacks              66                       # Number of write requests responded to by this memory
system.physmem.num_writes::total                   66                       # Number of write requests responded to by this memory
system.physmem.bw_read::cpu00.inst            1239333                       # Total read bandwidth from this memory (bytes/s)
system.physmem.bw_read::cpu00.data            1106804                       # Total read bandwidth from this memory (bytes/s)
system.physmem.bw_read::cpu01.inst             186258                       # Total read bandwidth from this memory (bytes/s)
system.physmem.bw_read::cpu01.data             290133                       # Total read bandwidth from this memory (bytes/s)
system.physmem.bw_read::cpu02.inst             143276                       # Total read bandwidth from this memory (bytes/s)
system.physmem.bw_read::cpu02.data             476391                       # Total read bandwidth from this memory (bytes/s)
system.physmem.bw_read::cpu03.inst              50146                       # Total read bandwidth from this memory (bytes/s)
system.physmem.bw_read::cpu03.data             419081                       # Total read bandwidth from this memory (bytes/s)
system.physmem.bw_read::cpu04.inst             204168                       # Total read bandwidth from this memory (bytes/s)
system.physmem.bw_read::cpu04.data             773688                       # Total read bandwidth from this memory (bytes/s)
system.physmem.bw_read::cpu05.inst              93129                       # Total read bandwidth from this memory (bytes/s)
system.physmem.bw_read::cpu05.data             648322                       # Total read bandwidth from this memory (bytes/s)
system.physmem.bw_read::cpu06.inst             218495                       # Total read bandwidth from this memory (bytes/s)
system.physmem.bw_read::cpu06.data            1533048                       # Total read bandwidth from this memory (bytes/s)
system.physmem.bw_read::cpu07.inst             114620                       # Total read bandwidth from this memory (bytes/s)
system.physmem.bw_read::cpu07.data            1583195                       # Total read bandwidth from this memory (bytes/s)
system.physmem.bw_read::cpu08.inst              53728                       # Total read bandwidth from this memory (bytes/s)
system.physmem.bw_read::cpu08.data            1901983                       # Total read bandwidth from this memory (bytes/s)
system.physmem.bw_read::cpu09.inst              64474                       # Total read bandwidth from this memory (bytes/s)
system.physmem.bw_read::cpu09.data            1257243                       # Total read bandwidth from this memory (bytes/s)
system.physmem.bw_read::cpu10.inst              85965                       # Total read bandwidth from this memory (bytes/s)
system.physmem.bw_read::cpu10.data            1325299                       # Total read bandwidth from this memory (bytes/s)
system.physmem.bw_read::cpu11.inst             107457                       # Total read bandwidth from this memory (bytes/s)
system.physmem.bw_read::cpu11.data            1028002                       # Total read bandwidth from this memory (bytes/s)
system.physmem.bw_read::cpu12.inst              42983                       # Total read bandwidth from this memory (bytes/s)
system.physmem.bw_read::cpu12.data             830998                       # Total read bandwidth from this memory (bytes/s)
system.physmem.bw_read::cpu13.inst             100293                       # Total read bandwidth from this memory (bytes/s)
system.physmem.bw_read::cpu13.data            1178441                       # Total read bandwidth from this memory (bytes/s)
system.physmem.bw_read::cpu14.inst              25073                       # Total read bandwidth from this memory (bytes/s)
system.physmem.bw_read::cpu14.data             802343                       # Total read bandwidth from this memory (bytes/s)
system.physmem.bw_read::cpu15.inst              35819                       # Total read bandwidth from this memory (bytes/s)
system.physmem.bw_read::cpu15.data             741451                       # Total read bandwidth from this memory (bytes/s)
system.physmem.bw_read::cpu16.inst             121784                       # Total read bandwidth from this memory (bytes/s)
system.physmem.bw_read::cpu16.data             186258                       # Total read bandwidth from this memory (bytes/s)
system.physmem.bw_read::total                18969681                       # Total read bandwidth from this memory (bytes/s)
system.physmem.bw_inst_read::cpu00.inst       1239333                       # Instruction read bandwidth from this memory (bytes/s)
system.physmem.bw_inst_read::cpu01.inst        186258                       # Instruction read bandwidth from this memory (bytes/s)
system.physmem.bw_inst_read::cpu02.inst        143276                       # Instruction read bandwidth from this memory (bytes/s)
system.physmem.bw_inst_read::cpu03.inst         50146                       # Instruction read bandwidth from this memory (bytes/s)
system.physmem.bw_inst_read::cpu04.inst        204168                       # Instruction read bandwidth from this memory (bytes/s)
system.physmem.bw_inst_read::cpu05.inst         93129                       # Instruction read bandwidth from this memory (bytes/s)
system.physmem.bw_inst_read::cpu06.inst        218495                       # Instruction read bandwidth from this memory (bytes/s)
system.physmem.bw_inst_read::cpu07.inst        114620                       # Instruction read bandwidth from this memory (bytes/s)
system.physmem.bw_inst_read::cpu08.inst         53728                       # Instruction read bandwidth from this memory (bytes/s)
system.physmem.bw_inst_read::cpu09.inst         64474                       # Instruction read bandwidth from this memory (bytes/s)
system.physmem.bw_inst_read::cpu10.inst         85965                       # Instruction read bandwidth from this memory (bytes/s)
system.physmem.bw_inst_read::cpu11.inst        107457                       # Instruction read bandwidth from this memory (bytes/s)
system.physmem.bw_inst_read::cpu12.inst         42983                       # Instruction read bandwidth from this memory (bytes/s)
system.physmem.bw_inst_read::cpu13.inst        100293                       # Instruction read bandwidth from this memory (bytes/s)
system.physmem.bw_inst_read::cpu14.inst         25073                       # Instruction read bandwidth from this memory (bytes/s)
system.physmem.bw_inst_read::cpu15.inst         35819                       # Instruction read bandwidth from this memory (bytes/s)
system.physmem.bw_inst_read::cpu16.inst        121784                       # Instruction read bandwidth from this memory (bytes/s)
system.physmem.bw_inst_read::total            2887002                       # Instruction read bandwidth from this memory (bytes/s)
system.physmem.bw_write::writebacks            236405                       # Write bandwidth from this memory (bytes/s)
system.physmem.bw_write::total                 236405                       # Write bandwidth from this memory (bytes/s)
system.physmem.bw_total::writebacks            236405                       # Total bandwidth to/from this memory (bytes/s)
system.physmem.bw_total::cpu00.inst           1239333                       # Total bandwidth to/from this memory (bytes/s)
system.physmem.bw_total::cpu00.data           1106804                       # Total bandwidth to/from this memory (bytes/s)
system.physmem.bw_total::cpu01.inst            186258                       # Total bandwidth to/from this memory (bytes/s)
system.physmem.bw_total::cpu01.data            290133                       # Total bandwidth to/from this memory (bytes/s)
system.physmem.bw_total::cpu02.inst            143276                       # Total bandwidth to/from this memory (bytes/s)
system.physmem.bw_total::cpu02.data            476391                       # Total bandwidth to/from this memory (bytes/s)
system.physmem.bw_total::cpu03.inst             50146                       # Total bandwidth to/from this memory (bytes/s)
system.physmem.bw_total::cpu03.data            419081                       # Total bandwidth to/from this memory (bytes/s)
system.physmem.bw_total::cpu04.inst            204168                       # Total bandwidth to/from this memory (bytes/s)
system.physmem.bw_total::cpu04.data            773688                       # Total bandwidth to/from this memory (bytes/s)
system.physmem.bw_total::cpu05.inst             93129                       # Total bandwidth to/from this memory (bytes/s)
system.physmem.bw_total::cpu05.data            648322                       # Total bandwidth to/from this memory (bytes/s)
system.physmem.bw_total::cpu06.inst            218495                       # Total bandwidth to/from this memory (bytes/s)
system.physmem.bw_total::cpu06.data           1533048                       # Total bandwidth to/from this memory (bytes/s)
system.physmem.bw_total::cpu07.inst            114620                       # Total bandwidth to/from this memory (bytes/s)
system.physmem.bw_total::cpu07.data           1583195                       # Total bandwidth to/from this memory (bytes/s)
system.physmem.bw_total::cpu08.inst             53728                       # Total bandwidth to/from this memory (bytes/s)
system.physmem.bw_total::cpu08.data           1901983                       # Total bandwidth to/from this memory (bytes/s)
system.physmem.bw_total::cpu09.inst             64474                       # Total bandwidth to/from this memory (bytes/s)
system.physmem.bw_total::cpu09.data           1257243                       # Total bandwidth to/from this memory (bytes/s)
system.physmem.bw_total::cpu10.inst             85965                       # Total bandwidth to/from this memory (bytes/s)
system.physmem.bw_total::cpu10.data           1325299                       # Total bandwidth to/from this memory (bytes/s)
system.physmem.bw_total::cpu11.inst            107457                       # Total bandwidth to/from this memory (bytes/s)
system.physmem.bw_total::cpu11.data           1028002                       # Total bandwidth to/from this memory (bytes/s)
system.physmem.bw_total::cpu12.inst             42983                       # Total bandwidth to/from this memory (bytes/s)
system.physmem.bw_total::cpu12.data            830998                       # Total bandwidth to/from this memory (bytes/s)
system.physmem.bw_total::cpu13.inst            100293                       # Total bandwidth to/from this memory (bytes/s)
system.physmem.bw_total::cpu13.data           1178441                       # Total bandwidth to/from this memory (bytes/s)
system.physmem.bw_total::cpu14.inst             25073                       # Total bandwidth to/from this memory (bytes/s)
system.physmem.bw_total::cpu14.data            802343                       # Total bandwidth to/from this memory (bytes/s)
system.physmem.bw_total::cpu15.inst             35819                       # Total bandwidth to/from this memory (bytes/s)
system.physmem.bw_total::cpu15.data            741451                       # Total bandwidth to/from this memory (bytes/s)
system.physmem.bw_total::cpu16.inst            121784                       # Total bandwidth to/from this memory (bytes/s)
system.physmem.bw_total::cpu16.data            186258                       # Total bandwidth to/from this memory (bytes/s)
system.physmem.bw_total::total               19206086                       # Total bandwidth to/from this memory (bytes/s)
system.cpu00.branchPred.lookups               8921544                       # Number of BP lookups
system.cpu00.branchPred.condPredicted         8920068                       # Number of conditional branches predicted
system.cpu00.branchPred.condIncorrect             823                       # Number of conditional branches incorrect
system.cpu00.branchPred.BTBLookups            8918852                       # Number of BTB lookups
system.cpu00.branchPred.BTBHits               8918377                       # Number of BTB hits
system.cpu00.branchPred.BTBCorrect                  0                       # Number of correct BTB predictions (this stat may not work properly.
system.cpu00.branchPred.BTBHitPct           99.994674                       # BTB Hit Percentage
system.cpu00.branchPred.usedRAS                   549                       # Number of times the RAS was used to get a target.
system.cpu00.branchPred.RASInCorrect               55                       # Number of incorrect RAS predictions.
system.cpu00.dstage2_mmu.stage2_tlb.walker.walks            0                       # Table walker walks requested
system.cpu00.dstage2_mmu.stage2_tlb.walker.walkRequestOrigin_Requested::Data            0                       # Table walker requests started/completed, data/inst
system.cpu00.dstage2_mmu.stage2_tlb.walker.walkRequestOrigin_Requested::Inst            0                       # Table walker requests started/completed, data/inst
system.cpu00.dstage2_mmu.stage2_tlb.walker.walkRequestOrigin_Requested::total            0                       # Table walker requests started/completed, data/inst
system.cpu00.dstage2_mmu.stage2_tlb.walker.walkRequestOrigin_Completed::Data            0                       # Table walker requests started/completed, data/inst
system.cpu00.dstage2_mmu.stage2_tlb.walker.walkRequestOrigin_Completed::Inst            0                       # Table walker requests started/completed, data/inst
system.cpu00.dstage2_mmu.stage2_tlb.walker.walkRequestOrigin_Completed::total            0                       # Table walker requests started/completed, data/inst
system.cpu00.dstage2_mmu.stage2_tlb.walker.walkRequestOrigin::total            0                       # Table walker requests started/completed, data/inst
system.cpu00.dstage2_mmu.stage2_tlb.inst_hits            0                       # ITB inst hits
system.cpu00.dstage2_mmu.stage2_tlb.inst_misses            0                       # ITB inst misses
system.cpu00.dstage2_mmu.stage2_tlb.read_hits            0                       # DTB read hits
system.cpu00.dstage2_mmu.stage2_tlb.read_misses            0                       # DTB read misses
system.cpu00.dstage2_mmu.stage2_tlb.write_hits            0                       # DTB write hits
system.cpu00.dstage2_mmu.stage2_tlb.write_misses            0                       # DTB write misses
system.cpu00.dstage2_mmu.stage2_tlb.flush_tlb            0                       # Number of times complete TLB was flushed
system.cpu00.dstage2_mmu.stage2_tlb.flush_tlb_mva            0                       # Number of times TLB was flushed by MVA
system.cpu00.dstage2_mmu.stage2_tlb.flush_tlb_mva_asid            0                       # Number of times TLB was flushed by MVA & ASID
system.cpu00.dstage2_mmu.stage2_tlb.flush_tlb_asid            0                       # Number of times TLB was flushed by ASID
system.cpu00.dstage2_mmu.stage2_tlb.flush_entries            0                       # Number of entries that have been flushed from TLB
system.cpu00.dstage2_mmu.stage2_tlb.align_faults            0                       # Number of TLB faults due to alignment restrictions
system.cpu00.dstage2_mmu.stage2_tlb.prefetch_faults            0                       # Number of TLB faults due to prefetch
system.cpu00.dstage2_mmu.stage2_tlb.domain_faults            0                       # Number of TLB faults due to domain restrictions
system.cpu00.dstage2_mmu.stage2_tlb.perms_faults            0                       # Number of TLB faults due to permissions restrictions
system.cpu00.dstage2_mmu.stage2_tlb.read_accesses            0                       # DTB read accesses
system.cpu00.dstage2_mmu.stage2_tlb.write_accesses            0                       # DTB write accesses
system.cpu00.dstage2_mmu.stage2_tlb.inst_accesses            0                       # ITB inst accesses
system.cpu00.dstage2_mmu.stage2_tlb.hits            0                       # DTB hits
system.cpu00.dstage2_mmu.stage2_tlb.misses            0                       # DTB misses
system.cpu00.dstage2_mmu.stage2_tlb.accesses            0                       # DTB accesses
system.cpu00.dtb.walker.walks                       0                       # Table walker walks requested
system.cpu00.dtb.walker.walkRequestOrigin_Requested::Data            0                       # Table walker requests started/completed, data/inst
system.cpu00.dtb.walker.walkRequestOrigin_Requested::Inst            0                       # Table walker requests started/completed, data/inst
system.cpu00.dtb.walker.walkRequestOrigin_Requested::total            0                       # Table walker requests started/completed, data/inst
system.cpu00.dtb.walker.walkRequestOrigin_Completed::Data            0                       # Table walker requests started/completed, data/inst
system.cpu00.dtb.walker.walkRequestOrigin_Completed::Inst            0                       # Table walker requests started/completed, data/inst
system.cpu00.dtb.walker.walkRequestOrigin_Completed::total            0                       # Table walker requests started/completed, data/inst
system.cpu00.dtb.walker.walkRequestOrigin::total            0                       # Table walker requests started/completed, data/inst
system.cpu00.dtb.inst_hits                          0                       # ITB inst hits
system.cpu00.dtb.inst_misses                        0                       # ITB inst misses
system.cpu00.dtb.read_hits                          0                       # DTB read hits
system.cpu00.dtb.read_misses                        0                       # DTB read misses
system.cpu00.dtb.write_hits                         0                       # DTB write hits
system.cpu00.dtb.write_misses                       0                       # DTB write misses
system.cpu00.dtb.flush_tlb                          0                       # Number of times complete TLB was flushed
system.cpu00.dtb.flush_tlb_mva                      0                       # Number of times TLB was flushed by MVA
system.cpu00.dtb.flush_tlb_mva_asid                 0                       # Number of times TLB was flushed by MVA & ASID
system.cpu00.dtb.flush_tlb_asid                     0                       # Number of times TLB was flushed by ASID
system.cpu00.dtb.flush_entries                      0                       # Number of entries that have been flushed from TLB
system.cpu00.dtb.align_faults                       0                       # Number of TLB faults due to alignment restrictions
system.cpu00.dtb.prefetch_faults                    0                       # Number of TLB faults due to prefetch
system.cpu00.dtb.domain_faults                      0                       # Number of TLB faults due to domain restrictions
system.cpu00.dtb.perms_faults                       0                       # Number of TLB faults due to permissions restrictions
system.cpu00.dtb.read_accesses                      0                       # DTB read accesses
system.cpu00.dtb.write_accesses                     0                       # DTB write accesses
system.cpu00.dtb.inst_accesses                      0                       # ITB inst accesses
system.cpu00.dtb.hits                               0                       # DTB hits
system.cpu00.dtb.misses                             0                       # DTB misses
system.cpu00.dtb.accesses                           0                       # DTB accesses
system.cpu00.istage2_mmu.stage2_tlb.walker.walks            0                       # Table walker walks requested
system.cpu00.istage2_mmu.stage2_tlb.walker.walkRequestOrigin_Requested::Data            0                       # Table walker requests started/completed, data/inst
system.cpu00.istage2_mmu.stage2_tlb.walker.walkRequestOrigin_Requested::Inst            0                       # Table walker requests started/completed, data/inst
system.cpu00.istage2_mmu.stage2_tlb.walker.walkRequestOrigin_Requested::total            0                       # Table walker requests started/completed, data/inst
system.cpu00.istage2_mmu.stage2_tlb.walker.walkRequestOrigin_Completed::Data            0                       # Table walker requests started/completed, data/inst
system.cpu00.istage2_mmu.stage2_tlb.walker.walkRequestOrigin_Completed::Inst            0                       # Table walker requests started/completed, data/inst
system.cpu00.istage2_mmu.stage2_tlb.walker.walkRequestOrigin_Completed::total            0                       # Table walker requests started/completed, data/inst
system.cpu00.istage2_mmu.stage2_tlb.walker.walkRequestOrigin::total            0                       # Table walker requests started/completed, data/inst
system.cpu00.istage2_mmu.stage2_tlb.inst_hits            0                       # ITB inst hits
system.cpu00.istage2_mmu.stage2_tlb.inst_misses            0                       # ITB inst misses
system.cpu00.istage2_mmu.stage2_tlb.read_hits            0                       # DTB read hits
system.cpu00.istage2_mmu.stage2_tlb.read_misses            0                       # DTB read misses
system.cpu00.istage2_mmu.stage2_tlb.write_hits            0                       # DTB write hits
system.cpu00.istage2_mmu.stage2_tlb.write_misses            0                       # DTB write misses
system.cpu00.istage2_mmu.stage2_tlb.flush_tlb            0                       # Number of times complete TLB was flushed
system.cpu00.istage2_mmu.stage2_tlb.flush_tlb_mva            0                       # Number of times TLB was flushed by MVA
system.cpu00.istage2_mmu.stage2_tlb.flush_tlb_mva_asid            0                       # Number of times TLB was flushed by MVA & ASID
system.cpu00.istage2_mmu.stage2_tlb.flush_tlb_asid            0                       # Number of times TLB was flushed by ASID
system.cpu00.istage2_mmu.stage2_tlb.flush_entries            0                       # Number of entries that have been flushed from TLB
system.cpu00.istage2_mmu.stage2_tlb.align_faults            0                       # Number of TLB faults due to alignment restrictions
system.cpu00.istage2_mmu.stage2_tlb.prefetch_faults            0                       # Number of TLB faults due to prefetch
system.cpu00.istage2_mmu.stage2_tlb.domain_faults            0                       # Number of TLB faults due to domain restrictions
system.cpu00.istage2_mmu.stage2_tlb.perms_faults            0                       # Number of TLB faults due to permissions restrictions
system.cpu00.istage2_mmu.stage2_tlb.read_accesses            0                       # DTB read accesses
system.cpu00.istage2_mmu.stage2_tlb.write_accesses            0                       # DTB write accesses
system.cpu00.istage2_mmu.stage2_tlb.inst_accesses            0                       # ITB inst accesses
system.cpu00.istage2_mmu.stage2_tlb.hits            0                       # DTB hits
system.cpu00.istage2_mmu.stage2_tlb.misses            0                       # DTB misses
system.cpu00.istage2_mmu.stage2_tlb.accesses            0                       # DTB accesses
system.cpu00.itb.walker.walks                       0                       # Table walker walks requested
system.cpu00.itb.walker.walkRequestOrigin_Requested::Data            0                       # Table walker requests started/completed, data/inst
system.cpu00.itb.walker.walkRequestOrigin_Requested::Inst            0                       # Table walker requests started/completed, data/inst
system.cpu00.itb.walker.walkRequestOrigin_Requested::total            0                       # Table walker requests started/completed, data/inst
system.cpu00.itb.walker.walkRequestOrigin_Completed::Data            0                       # Table walker requests started/completed, data/inst
system.cpu00.itb.walker.walkRequestOrigin_Completed::Inst            0                       # Table walker requests started/completed, data/inst
system.cpu00.itb.walker.walkRequestOrigin_Completed::total            0                       # Table walker requests started/completed, data/inst
system.cpu00.itb.walker.walkRequestOrigin::total            0                       # Table walker requests started/completed, data/inst
system.cpu00.itb.inst_hits                          0                       # ITB inst hits
system.cpu00.itb.inst_misses                        0                       # ITB inst misses
system.cpu00.itb.read_hits                          0                       # DTB read hits
system.cpu00.itb.read_misses                        0                       # DTB read misses
system.cpu00.itb.write_hits                         0                       # DTB write hits
system.cpu00.itb.write_misses                       0                       # DTB write misses
system.cpu00.itb.flush_tlb                          0                       # Number of times complete TLB was flushed
system.cpu00.itb.flush_tlb_mva                      0                       # Number of times TLB was flushed by MVA
system.cpu00.itb.flush_tlb_mva_asid                 0                       # Number of times TLB was flushed by MVA & ASID
system.cpu00.itb.flush_tlb_asid                     0                       # Number of times TLB was flushed by ASID
system.cpu00.itb.flush_entries                      0                       # Number of entries that have been flushed from TLB
system.cpu00.itb.align_faults                       0                       # Number of TLB faults due to alignment restrictions
system.cpu00.itb.prefetch_faults                    0                       # Number of TLB faults due to prefetch
system.cpu00.itb.domain_faults                      0                       # Number of TLB faults due to domain restrictions
system.cpu00.itb.perms_faults                       0                       # Number of TLB faults due to permissions restrictions
system.cpu00.itb.read_accesses                      0                       # DTB read accesses
system.cpu00.itb.write_accesses                     0                       # DTB write accesses
system.cpu00.itb.inst_accesses                      0                       # ITB inst accesses
system.cpu00.itb.hits                               0                       # DTB hits
system.cpu00.itb.misses                             0                       # DTB misses
system.cpu00.itb.accesses                           0                       # DTB accesses
system.cpu00.workload.num_syscalls              57158                       # Number of system calls
system.cpu00.numCycles                       17867671                       # number of cpu cycles simulated
system.cpu00.numWorkItemsStarted                    0                       # number of work items this cpu started
system.cpu00.numWorkItemsCompleted                  0                       # number of work items this cpu completed
system.cpu00.fetch.icacheStallCycles             9308                       # Number of cycles fetch is stalled on an Icache miss
system.cpu00.fetch.Insts                     44609341                       # Number of instructions fetch has processed
system.cpu00.fetch.Branches                   8921544                       # Number of branches that fetch encountered
system.cpu00.fetch.predictedBranches          8918926                       # Number of branches that fetch has predicted taken
system.cpu00.fetch.Cycles                    17849339                       # Number of cycles fetch has run and was not squashing or blocked
system.cpu00.fetch.SquashCycles                  1821                       # Number of cycles fetch has spent squashing
system.cpu00.fetch.PendingTrapStallCycles          156                       # Number of stall cycles due to pending traps
system.cpu00.fetch.CacheLines                    2886                       # Number of cache lines fetched
system.cpu00.fetch.IcacheSquashes                 281                       # Number of outstanding Icache misses that were squashed
system.cpu00.fetch.rateDist::samples         17859713                       # Number of instructions fetched each cycle (Total)
system.cpu00.fetch.rateDist::mean            2.498102                       # Number of instructions fetched each cycle (Total)
system.cpu00.fetch.rateDist::stdev           0.504943                       # Number of instructions fetched each cycle (Total)
system.cpu00.fetch.rateDist::underflows             0      0.00%      0.00% # Number of instructions fetched each cycle (Total)
system.cpu00.fetch.rateDist::0                  14495      0.08%      0.08% # Number of instructions fetched each cycle (Total)
system.cpu00.fetch.rateDist::1                    901      0.01%      0.09% # Number of instructions fetched each cycle (Total)
system.cpu00.fetch.rateDist::2                8918468     49.94%     50.02% # Number of instructions fetched each cycle (Total)
system.cpu00.fetch.rateDist::3                8925849     49.98%    100.00% # Number of instructions fetched each cycle (Total)
system.cpu00.fetch.rateDist::overflows              0      0.00%    100.00% # Number of instructions fetched each cycle (Total)
system.cpu00.fetch.rateDist::min_value              0                       # Number of instructions fetched each cycle (Total)
system.cpu00.fetch.rateDist::max_value              3                       # Number of instructions fetched each cycle (Total)
system.cpu00.fetch.rateDist::total           17859713                       # Number of instructions fetched each cycle (Total)
system.cpu00.fetch.branchRate                0.499312                       # Number of branch fetches per cycle
system.cpu00.fetch.rate                      2.496651                       # Number of inst fetches per cycle
system.cpu00.decode.IdleCycles                   8722                       # Number of cycles decode is idle
system.cpu00.decode.BlockedCycles                6622                       # Number of cycles decode is blocked
system.cpu00.decode.RunCycles                17843038                       # Number of cycles decode is running
system.cpu00.decode.UnblockCycles                 621                       # Number of cycles decode is unblocking
system.cpu00.decode.SquashCycles                  710                       # Number of cycles decode is squashing
system.cpu00.decode.BranchResolved                566                       # Number of times decode resolved a branch
system.cpu00.decode.BranchMispred                 214                       # Number of times decode detected a branch misprediction
system.cpu00.decode.DecodedInsts             44611263                       # Number of instructions handled by decode
system.cpu00.decode.SquashedInsts                 483                       # Number of squashed instructions handled by decode
system.cpu00.rename.SquashCycles                  710                       # Number of cycles rename is squashing
system.cpu00.rename.IdleCycles                   9491                       # Number of cycles rename is idle
system.cpu00.rename.BlockCycles                   631                       # Number of cycles rename is blocking
system.cpu00.rename.serializeStallCycles         3549                       # count of cycles rename stalled for serializing inst
system.cpu00.rename.RunCycles                17842802                       # Number of cycles rename is running
system.cpu00.rename.UnblockCycles                2530                       # Number of cycles rename is unblocking
system.cpu00.rename.RenamedInsts             44609984                       # Number of instructions processed by rename
system.cpu00.rename.IQFullEvents                    1                       # Number of times rename has blocked due to IQ full
system.cpu00.rename.SQFullEvents                 2413                       # Number of times rename has blocked due to SQ full
system.cpu00.rename.RenamedOperands          44611718                       # Number of destination operands rename has renamed
system.cpu00.rename.RenameLookups           205210302                       # Number of register rename lookups that rename has made
system.cpu00.rename.int_rename_lookups       44616041                       # Number of integer rename lookups
system.cpu00.rename.fp_rename_lookups              16                       # Number of floating rename lookups
system.cpu00.rename.CommittedMaps            44602102                       # Number of HB maps that are committed
system.cpu00.rename.UndoneMaps                   9616                       # Number of HB maps that are undone due to squashing
system.cpu00.rename.serializingInsts               76                       # count of serializing insts renamed
system.cpu00.rename.tempSerializingInsts           75                       # count of temporary serializing insts renamed
system.cpu00.rename.skidInsts                    1168                       # count of insts added to the skid buffer
system.cpu00.memDep0.insertedLoads           17838245                       # Number of loads inserted to the mem dependence unit.
system.cpu00.memDep0.insertedStores           8921907                       # Number of stores inserted to the mem dependence unit.
system.cpu00.memDep0.conflictingLoads         8917371                       # Number of conflicting loads.
system.cpu00.memDep0.conflictingStores        8917300                       # Number of conflicting stores.
system.cpu00.iq.iqInstsAdded                 44607682                       # Number of instructions added to the IQ (excludes non-spec)
system.cpu00.iq.iqNonSpecInstsAdded                98                       # Number of non-speculative instructions added to the IQ
system.cpu00.iq.iqInstsIssued                44605400                       # Number of instructions issued
system.cpu00.iq.iqSquashedInstsIssued             295                       # Number of squashed instructions issued
system.cpu00.iq.iqSquashedInstsExamined          6487                       # Number of squashed instructions iterated over during squash; mainly for profiling
system.cpu00.iq.iqSquashedOperandsExamined        15294                       # Number of squashed operands that are examined and possibly removed from graph
system.cpu00.iq.iqSquashedNonSpecRemoved            5                       # Number of squashed non-spec instructions that were removed
system.cpu00.iq.issued_per_cycle::samples     17859713                       # Number of insts issued each cycle
system.cpu00.iq.issued_per_cycle::mean       2.497543                       # Number of insts issued each cycle
system.cpu00.iq.issued_per_cycle::stdev      0.706032                       # Number of insts issued each cycle
system.cpu00.iq.issued_per_cycle::underflows            0      0.00%      0.00% # Number of insts issued each cycle
system.cpu00.iq.issued_per_cycle::0             15912      0.09%      0.09% # Number of insts issued each cycle
system.cpu00.iq.issued_per_cycle::1           2171224     12.16%     12.25% # Number of insts issued each cycle
system.cpu00.iq.issued_per_cycle::2           4583555     25.66%     37.91% # Number of insts issued each cycle
system.cpu00.iq.issued_per_cycle::3          11089022     62.09%    100.00% # Number of insts issued each cycle
system.cpu00.iq.issued_per_cycle::overflows            0      0.00%    100.00% # Number of insts issued each cycle
system.cpu00.iq.issued_per_cycle::min_value            0                       # Number of insts issued each cycle
system.cpu00.iq.issued_per_cycle::max_value            3                       # Number of insts issued each cycle
system.cpu00.iq.issued_per_cycle::total      17859713                       # Number of insts issued each cycle
system.cpu00.iq.fu_full::No_OpClass                 0                       # attempts to use FU when none available
system.cpu00.iq.fu_full::IntAlu                     0                       # attempts to use FU when none available
system.cpu00.iq.fu_full::IntMult                    0                       # attempts to use FU when none available
system.cpu00.iq.fu_full::IntDiv                     0                       # attempts to use FU when none available
system.cpu00.iq.fu_full::FloatAdd                   0                       # attempts to use FU when none available
system.cpu00.iq.fu_full::FloatCmp                   0                       # attempts to use FU when none available
system.cpu00.iq.fu_full::FloatCvt                   0                       # attempts to use FU when none available
system.cpu00.iq.fu_full::FloatMult                  0                       # attempts to use FU when none available
system.cpu00.iq.fu_full::FloatDiv                   0                       # attempts to use FU when none available
system.cpu00.iq.fu_full::FloatSqrt                  0                       # attempts to use FU when none available
system.cpu00.iq.fu_full::SimdAdd                    0                       # attempts to use FU when none available
system.cpu00.iq.fu_full::SimdAddAcc                 0                       # attempts to use FU when none available
system.cpu00.iq.fu_full::SimdAlu                    0                       # attempts to use FU when none available
system.cpu00.iq.fu_full::SimdCmp                    0                       # attempts to use FU when none available
system.cpu00.iq.fu_full::SimdCvt                    0                       # attempts to use FU when none available
system.cpu00.iq.fu_full::SimdMisc                   0                       # attempts to use FU when none available
system.cpu00.iq.fu_full::SimdMult                   0                       # attempts to use FU when none available
system.cpu00.iq.fu_full::SimdMultAcc                0                       # attempts to use FU when none available
system.cpu00.iq.fu_full::SimdShift                  0                       # attempts to use FU when none available
system.cpu00.iq.fu_full::SimdShiftAcc               0                       # attempts to use FU when none available
system.cpu00.iq.fu_full::SimdSqrt                   0                       # attempts to use FU when none available
system.cpu00.iq.fu_full::SimdFloatAdd               0                       # attempts to use FU when none available
system.cpu00.iq.fu_full::SimdFloatAlu               0                       # attempts to use FU when none available
system.cpu00.iq.fu_full::SimdFloatCmp               0                       # attempts to use FU when none available
system.cpu00.iq.fu_full::SimdFloatCvt               0                       # attempts to use FU when none available
system.cpu00.iq.fu_full::SimdFloatDiv               0                       # attempts to use FU when none available
system.cpu00.iq.fu_full::SimdFloatMisc              0                       # attempts to use FU when none available
system.cpu00.iq.fu_full::SimdFloatMult              0                       # attempts to use FU when none available
system.cpu00.iq.fu_full::SimdFloatMultAcc            0                       # attempts to use FU when none available
system.cpu00.iq.fu_full::SimdFloatSqrt              0                       # attempts to use FU when none available
system.cpu00.iq.fu_full::MemRead                    0                       # attempts to use FU when none available
system.cpu00.iq.fu_full::MemWrite                   0                       # attempts to use FU when none available
system.cpu00.iq.fu_full::IprAccess                  0                       # attempts to use FU when none available
system.cpu00.iq.fu_full::InstPrefetch               0                       # attempts to use FU when none available
system.cpu00.iq.FU_type_0::No_OpClass               0      0.00%      0.00% # Type of FU issued
system.cpu00.iq.FU_type_0::IntAlu            17845960     40.01%     40.01% # Type of FU issued
system.cpu00.iq.FU_type_0::IntMult                  8      0.00%     40.01% # Type of FU issued
system.cpu00.iq.FU_type_0::IntDiv                   0      0.00%     40.01% # Type of FU issued
system.cpu00.iq.FU_type_0::FloatAdd                 0      0.00%     40.01% # Type of FU issued
system.cpu00.iq.FU_type_0::FloatCmp                 0      0.00%     40.01% # Type of FU issued
system.cpu00.iq.FU_type_0::FloatCvt                 0      0.00%     40.01% # Type of FU issued
system.cpu00.iq.FU_type_0::FloatMult                0      0.00%     40.01% # Type of FU issued
system.cpu00.iq.FU_type_0::FloatDiv                 0      0.00%     40.01% # Type of FU issued
system.cpu00.iq.FU_type_0::FloatSqrt                0      0.00%     40.01% # Type of FU issued
system.cpu00.iq.FU_type_0::SimdAdd                  0      0.00%     40.01% # Type of FU issued
system.cpu00.iq.FU_type_0::SimdAddAcc               0      0.00%     40.01% # Type of FU issued
system.cpu00.iq.FU_type_0::SimdAlu                  0      0.00%     40.01% # Type of FU issued
system.cpu00.iq.FU_type_0::SimdCmp                  0      0.00%     40.01% # Type of FU issued
system.cpu00.iq.FU_type_0::SimdCvt                  0      0.00%     40.01% # Type of FU issued
system.cpu00.iq.FU_type_0::SimdMisc                 0      0.00%     40.01% # Type of FU issued
system.cpu00.iq.FU_type_0::SimdMult                 0      0.00%     40.01% # Type of FU issued
system.cpu00.iq.FU_type_0::SimdMultAcc              0      0.00%     40.01% # Type of FU issued
system.cpu00.iq.FU_type_0::SimdShift                0      0.00%     40.01% # Type of FU issued
system.cpu00.iq.FU_type_0::SimdShiftAcc             0      0.00%     40.01% # Type of FU issued
system.cpu00.iq.FU_type_0::SimdSqrt                 0      0.00%     40.01% # Type of FU issued
system.cpu00.iq.FU_type_0::SimdFloatAdd             0      0.00%     40.01% # Type of FU issued
system.cpu00.iq.FU_type_0::SimdFloatAlu             0      0.00%     40.01% # Type of FU issued
system.cpu00.iq.FU_type_0::SimdFloatCmp             0      0.00%     40.01% # Type of FU issued
system.cpu00.iq.FU_type_0::SimdFloatCvt             0      0.00%     40.01% # Type of FU issued
system.cpu00.iq.FU_type_0::SimdFloatDiv             0      0.00%     40.01% # Type of FU issued
system.cpu00.iq.FU_type_0::SimdFloatMisc            3      0.00%     40.01% # Type of FU issued
system.cpu00.iq.FU_type_0::SimdFloatMult            0      0.00%     40.01% # Type of FU issued
system.cpu00.iq.FU_type_0::SimdFloatMultAcc            0      0.00%     40.01% # Type of FU issued
system.cpu00.iq.FU_type_0::SimdFloatSqrt            0      0.00%     40.01% # Type of FU issued
system.cpu00.iq.FU_type_0::MemRead           17837843     39.99%     80.00% # Type of FU issued
system.cpu00.iq.FU_type_0::MemWrite           8921586     20.00%    100.00% # Type of FU issued
system.cpu00.iq.FU_type_0::IprAccess                0      0.00%    100.00% # Type of FU issued
system.cpu00.iq.FU_type_0::InstPrefetch             0      0.00%    100.00% # Type of FU issued
system.cpu00.iq.FU_type_0::total             44605400                       # Type of FU issued
system.cpu00.iq.rate                         2.496431                       # Inst issue rate
system.cpu00.iq.fu_busy_cnt                         0                       # FU busy when requested
system.cpu00.iq.fu_busy_rate                        0                       # FU busy rate (busy events/executed inst)
system.cpu00.iq.int_inst_queue_reads        107070776                       # Number of integer instruction queue reads
system.cpu00.iq.int_inst_queue_writes        44614299                       # Number of integer instruction queue writes
system.cpu00.iq.int_inst_queue_wakeup_accesses     44604017                       # Number of integer instruction queue wakeup accesses
system.cpu00.iq.fp_inst_queue_reads                32                       # Number of floating instruction queue reads
system.cpu00.iq.fp_inst_queue_writes               16                       # Number of floating instruction queue writes
system.cpu00.iq.fp_inst_queue_wakeup_accesses           16                       # Number of floating instruction queue wakeup accesses
system.cpu00.iq.int_alu_accesses             44605384                       # Number of integer alu accesses
system.cpu00.iq.fp_alu_accesses                    16                       # Number of floating point alu accesses
system.cpu00.iew.lsq.thread0.forwLoads        8917466                       # Number of loads that had data forwarded from stores
system.cpu00.iew.lsq.thread0.invAddrLoads            0                       # Number of loads ignored due to an invalid address
system.cpu00.iew.lsq.thread0.squashedLoads         1702                       # Number of loads squashed
system.cpu00.iew.lsq.thread0.ignoredResponses            1                       # Number of memory responses ignored because the instruction is squashed
system.cpu00.iew.lsq.thread0.memOrderViolation           48                       # Number of memory ordering violations
system.cpu00.iew.lsq.thread0.squashedStores          661                       # Number of stores squashed
system.cpu00.iew.lsq.thread0.invAddrSwpfs            0                       # Number of software prefetches ignored due to an invalid address
system.cpu00.iew.lsq.thread0.blockedLoads            0                       # Number of blocked loads due to partial load-store forwarding
system.cpu00.iew.lsq.thread0.rescheduledLoads            7                       # Number of loads that were rescheduled
system.cpu00.iew.lsq.thread0.cacheBlocked            0                       # Number of times an access to memory failed due to the cache being blocked
system.cpu00.iew.iewIdleCycles                      0                       # Number of cycles IEW is idle
system.cpu00.iew.iewSquashCycles                  710                       # Number of cycles IEW is squashing
system.cpu00.iew.iewBlockCycles                   521                       # Number of cycles IEW is blocking
system.cpu00.iew.iewUnblockCycles                 112                       # Number of cycles IEW is unblocking
system.cpu00.iew.iewDispatchedInsts          44607802                       # Number of instructions dispatched to IQ
system.cpu00.iew.iewDispSquashedInsts             484                       # Number of squashed instructions skipped by dispatch
system.cpu00.iew.iewDispLoadInsts            17838245                       # Number of dispatched load instructions
system.cpu00.iew.iewDispStoreInsts            8921907                       # Number of dispatched store instructions
system.cpu00.iew.iewDispNonSpecInsts               72                       # Number of dispatched non-speculative instructions
system.cpu00.iew.iewIQFullEvents                    3                       # Number of times the IQ has become full, causing a stall
system.cpu00.iew.iewLSQFullEvents                   0                       # Number of times the LSQ has become full, causing a stall
system.cpu00.iew.memOrderViolationEvents           48                       # Number of memory order violations
system.cpu00.iew.predictedTakenIncorrect           86                       # Number of branches that were predicted taken incorrectly
system.cpu00.iew.predictedNotTakenIncorrect          568                       # Number of branches that were predicted not taken incorrectly
system.cpu00.iew.branchMispredicts                654                       # Number of branch mispredicts detected at execute
system.cpu00.iew.iewExecutedInsts            44604561                       # Number of executed instructions
system.cpu00.iew.iewExecLoadInsts            17837594                       # Number of load instructions executed
system.cpu00.iew.iewExecSquashedInsts             839                       # Number of squashed instructions skipped in execute
system.cpu00.iew.exec_swp                           0                       # number of swp insts executed
system.cpu00.iew.exec_nop                          22                       # number of nop insts executed
system.cpu00.iew.exec_refs                   26759064                       # number of memory reference insts executed
system.cpu00.iew.exec_branches                8919725                       # Number of branches executed
system.cpu00.iew.exec_stores                  8921470                       # Number of stores executed
system.cpu00.iew.exec_rate                   2.496384                       # Inst execution rate
system.cpu00.iew.wb_sent                     44604170                       # cumulative count of insts sent to commit
system.cpu00.iew.wb_count                    44604033                       # cumulative count of insts written-back
system.cpu00.iew.wb_producers                26759466                       # num instructions producing a value
system.cpu00.iew.wb_consumers                26770318                       # num instructions consuming a value
system.cpu00.iew.wb_penalized                       0                       # number of instrctions required to write to 'other' IQ
system.cpu00.iew.wb_rate                     2.496354                       # insts written-back per cycle
system.cpu00.iew.wb_fanout                   0.999595                       # average fanout of values written-back
system.cpu00.iew.wb_penalized_rate                  0                       # fraction of instructions written-back that wrote to 'other' IQ
system.cpu00.commit.commitSquashedInsts          6508                       # The number of squashed insts skipped by commit
system.cpu00.commit.commitNonSpecStalls            93                       # The number of times commit has been forced to stall to communicate backwards
system.cpu00.commit.branchMispredicts             623                       # The number of times a branch was mispredicted
system.cpu00.commit.committed_per_cycle::samples     17858536                       # Number of insts commited each cycle
system.cpu00.commit.committed_per_cycle::mean     2.497478                       # Number of insts commited each cycle
system.cpu00.commit.committed_per_cycle::stdev     1.580055                       # Number of insts commited each cycle
system.cpu00.commit.committed_per_cycle::underflows            0      0.00%      0.00% # Number of insts commited each cycle
system.cpu00.commit.committed_per_cycle::0        17205      0.10%      0.10% # Number of insts commited each cycle
system.cpu00.commit.committed_per_cycle::1      8920099     49.95%     50.04% # Number of insts commited each cycle
system.cpu00.commit.committed_per_cycle::2         1376      0.01%     50.05% # Number of insts commited each cycle
system.cpu00.commit.committed_per_cycle::3      2169804     12.15%     62.20% # Number of insts commited each cycle
system.cpu00.commit.committed_per_cycle::4      4581758     25.66%     87.86% # Number of insts commited each cycle
system.cpu00.commit.committed_per_cycle::5      2168036     12.14%    100.00% # Number of insts commited each cycle
system.cpu00.commit.committed_per_cycle::6           91      0.00%    100.00% # Number of insts commited each cycle
system.cpu00.commit.committed_per_cycle::7           64      0.00%    100.00% # Number of insts commited each cycle
system.cpu00.commit.committed_per_cycle::8          103      0.00%    100.00% # Number of insts commited each cycle
system.cpu00.commit.committed_per_cycle::overflows            0      0.00%    100.00% # Number of insts commited each cycle
system.cpu00.commit.committed_per_cycle::min_value            0                       # Number of insts commited each cycle
system.cpu00.commit.committed_per_cycle::max_value            8                       # Number of insts commited each cycle
system.cpu00.commit.committed_per_cycle::total     17858536                       # Number of insts commited each cycle
system.cpu00.commit.committedInsts           44597578                       # Number of instructions committed
system.cpu00.commit.committedOps             44601293                       # Number of ops (including micro ops) committed
system.cpu00.commit.swp_count                       0                       # Number of s/w prefetches committed
system.cpu00.commit.refs                     26757789                       # Number of memory references committed
system.cpu00.commit.loads                    17836543                       # Number of loads committed
system.cpu00.commit.membars                        26                       # Number of memory barriers committed
system.cpu00.commit.branches                  8919263                       # Number of branches committed
system.cpu00.commit.fp_insts                       16                       # Number of committed floating point instructions.
system.cpu00.commit.int_insts                35682522                       # Number of committed integer instructions.
system.cpu00.commit.function_calls                204                       # Number of function calls committed.
system.cpu00.commit.op_class_0::No_OpClass            0      0.00%      0.00% # Class of committed instruction
system.cpu00.commit.op_class_0::IntAlu       17843493     40.01%     40.01% # Class of committed instruction
system.cpu00.commit.op_class_0::IntMult             8      0.00%     40.01% # Class of committed instruction
system.cpu00.commit.op_class_0::IntDiv              0      0.00%     40.01% # Class of committed instruction
system.cpu00.commit.op_class_0::FloatAdd            0      0.00%     40.01% # Class of committed instruction
system.cpu00.commit.op_class_0::FloatCmp            0      0.00%     40.01% # Class of committed instruction
system.cpu00.commit.op_class_0::FloatCvt            0      0.00%     40.01% # Class of committed instruction
system.cpu00.commit.op_class_0::FloatMult            0      0.00%     40.01% # Class of committed instruction
system.cpu00.commit.op_class_0::FloatDiv            0      0.00%     40.01% # Class of committed instruction
system.cpu00.commit.op_class_0::FloatSqrt            0      0.00%     40.01% # Class of committed instruction
system.cpu00.commit.op_class_0::SimdAdd             0      0.00%     40.01% # Class of committed instruction
system.cpu00.commit.op_class_0::SimdAddAcc            0      0.00%     40.01% # Class of committed instruction
system.cpu00.commit.op_class_0::SimdAlu             0      0.00%     40.01% # Class of committed instruction
system.cpu00.commit.op_class_0::SimdCmp             0      0.00%     40.01% # Class of committed instruction
system.cpu00.commit.op_class_0::SimdCvt             0      0.00%     40.01% # Class of committed instruction
system.cpu00.commit.op_class_0::SimdMisc            0      0.00%     40.01% # Class of committed instruction
system.cpu00.commit.op_class_0::SimdMult            0      0.00%     40.01% # Class of committed instruction
system.cpu00.commit.op_class_0::SimdMultAcc            0      0.00%     40.01% # Class of committed instruction
system.cpu00.commit.op_class_0::SimdShift            0      0.00%     40.01% # Class of committed instruction
system.cpu00.commit.op_class_0::SimdShiftAcc            0      0.00%     40.01% # Class of committed instruction
system.cpu00.commit.op_class_0::SimdSqrt            0      0.00%     40.01% # Class of committed instruction
system.cpu00.commit.op_class_0::SimdFloatAdd            0      0.00%     40.01% # Class of committed instruction
system.cpu00.commit.op_class_0::SimdFloatAlu            0      0.00%     40.01% # Class of committed instruction
system.cpu00.commit.op_class_0::SimdFloatCmp            0      0.00%     40.01% # Class of committed instruction
system.cpu00.commit.op_class_0::SimdFloatCvt            0      0.00%     40.01% # Class of committed instruction
system.cpu00.commit.op_class_0::SimdFloatDiv            0      0.00%     40.01% # Class of committed instruction
system.cpu00.commit.op_class_0::SimdFloatMisc            3      0.00%     40.01% # Class of committed instruction
system.cpu00.commit.op_class_0::SimdFloatMult            0      0.00%     40.01% # Class of committed instruction
system.cpu00.commit.op_class_0::SimdFloatMultAcc            0      0.00%     40.01% # Class of committed instruction
system.cpu00.commit.op_class_0::SimdFloatSqrt            0      0.00%     40.01% # Class of committed instruction
system.cpu00.commit.op_class_0::MemRead      17836543     39.99%     80.00% # Class of committed instruction
system.cpu00.commit.op_class_0::MemWrite      8921246     20.00%    100.00% # Class of committed instruction
system.cpu00.commit.op_class_0::IprAccess            0      0.00%    100.00% # Class of committed instruction
system.cpu00.commit.op_class_0::InstPrefetch            0      0.00%    100.00% # Class of committed instruction
system.cpu00.commit.op_class_0::total        44601293                       # Class of committed instruction
system.cpu00.commit.bw_lim_events                 103                       # number cycles where commit BW limit reached
system.cpu00.rob.rob_reads                   62465713                       # The number of ROB reads
system.cpu00.rob.rob_writes                  89216785                       # The number of ROB writes
system.cpu00.timesIdled                           244                       # Number of times that the entire CPU went into an idle state and unscheduled itself
system.cpu00.idleCycles                          7958                       # Total number of cycles that the CPU has spent unscheduled due to idling
system.cpu00.committedInsts                  44597578                       # Number of Instructions Simulated
system.cpu00.committedOps                    44601293                       # Number of Ops (including micro ops) Simulated
system.cpu00.cpi                             0.400642                       # CPI: Cycles Per Instruction
system.cpu00.cpi_total                       0.400642                       # CPI: Total CPI of All Threads
system.cpu00.ipc                             2.495993                       # IPC: Instructions Per Cycle
system.cpu00.ipc_total                       2.495993                       # IPC: Total IPC of All Threads
system.cpu00.int_regfile_reads               44607871                       # number of integer regfile reads
system.cpu00.int_regfile_writes              17844782                       # number of integer regfile writes
system.cpu00.fp_regfile_reads                    2576                       # number of floating regfile reads
system.cpu00.cc_regfile_reads               187324864                       # number of cc regfile reads
system.cpu00.cc_regfile_writes               26760214                       # number of cc regfile writes
system.cpu00.misc_regfile_reads              27162068                       # number of misc regfile reads
system.cpu00.misc_regfile_writes                   54                       # number of misc regfile writes
system.cpu00.dcache.tags.replacements              73                       # number of replacements
system.cpu00.dcache.tags.tagsinuse         143.724148                       # Cycle average of tags in use
system.cpu00.dcache.tags.total_refs          17837987                       # Total number of references to valid blocks.
system.cpu00.dcache.tags.sampled_refs             236                       # Sample count of references to valid blocks.
system.cpu00.dcache.tags.avg_refs        75584.690678                       # Average number of references to valid blocks.
system.cpu00.dcache.tags.warmup_cycle               0                       # Cycle when the warmup percentage was hit.
system.cpu00.dcache.tags.occ_blocks::cpu00.data   143.724148                       # Average occupied blocks per requestor
system.cpu00.dcache.tags.occ_percent::cpu00.data     0.280711                       # Average percentage of cache occupancy
system.cpu00.dcache.tags.occ_percent::total     0.280711                       # Average percentage of cache occupancy
system.cpu00.dcache.tags.occ_task_id_blocks::1024          163                       # Occupied blocks per task id
system.cpu00.dcache.tags.age_task_id_blocks_1024::0           25                       # Occupied blocks per task id
system.cpu00.dcache.tags.age_task_id_blocks_1024::4          138                       # Occupied blocks per task id
system.cpu00.dcache.tags.occ_task_id_percent::1024     0.318359                       # Percentage of cache occupancy per task id
system.cpu00.dcache.tags.tag_accesses        35682571                       # Number of tag accesses
system.cpu00.dcache.tags.data_accesses       35682571                       # Number of data accesses
system.cpu00.dcache.ReadReq_hits::cpu00.data      8919641                       # number of ReadReq hits
system.cpu00.dcache.ReadReq_hits::total       8919641                       # number of ReadReq hits
system.cpu00.dcache.WriteReq_hits::cpu00.data      8918658                       # number of WriteReq hits
system.cpu00.dcache.WriteReq_hits::total      8918658                       # number of WriteReq hits
system.cpu00.dcache.LoadLockedReq_hits::cpu00.data           22                       # number of LoadLockedReq hits
system.cpu00.dcache.LoadLockedReq_hits::total           22                       # number of LoadLockedReq hits
system.cpu00.dcache.StoreCondReq_hits::cpu00.data           24                       # number of StoreCondReq hits
system.cpu00.dcache.StoreCondReq_hits::total           24                       # number of StoreCondReq hits
system.cpu00.dcache.demand_hits::cpu00.data     17838299                       # number of demand (read+write) hits
system.cpu00.dcache.demand_hits::total       17838299                       # number of demand (read+write) hits
system.cpu00.dcache.overall_hits::cpu00.data     17838299                       # number of overall hits
system.cpu00.dcache.overall_hits::total      17838299                       # number of overall hits
system.cpu00.dcache.ReadReq_misses::cpu00.data          244                       # number of ReadReq misses
system.cpu00.dcache.ReadReq_misses::total          244                       # number of ReadReq misses
system.cpu00.dcache.WriteReq_misses::cpu00.data         2503                       # number of WriteReq misses
system.cpu00.dcache.WriteReq_misses::total         2503                       # number of WriteReq misses
system.cpu00.dcache.LoadLockedReq_misses::cpu00.data            3                       # number of LoadLockedReq misses
system.cpu00.dcache.LoadLockedReq_misses::total            3                       # number of LoadLockedReq misses
system.cpu00.dcache.StoreCondReq_misses::cpu00.data            1                       # number of StoreCondReq misses
system.cpu00.dcache.StoreCondReq_misses::total            1                       # number of StoreCondReq misses
system.cpu00.dcache.demand_misses::cpu00.data         2747                       # number of demand (read+write) misses
system.cpu00.dcache.demand_misses::total         2747                       # number of demand (read+write) misses
system.cpu00.dcache.overall_misses::cpu00.data         2747                       # number of overall misses
system.cpu00.dcache.overall_misses::total         2747                       # number of overall misses
system.cpu00.dcache.ReadReq_miss_latency::cpu00.data     10157990                       # number of ReadReq miss cycles
system.cpu00.dcache.ReadReq_miss_latency::total     10157990                       # number of ReadReq miss cycles
system.cpu00.dcache.WriteReq_miss_latency::cpu00.data    123608500                       # number of WriteReq miss cycles
system.cpu00.dcache.WriteReq_miss_latency::total    123608500                       # number of WriteReq miss cycles
system.cpu00.dcache.LoadLockedReq_miss_latency::cpu00.data       133500                       # number of LoadLockedReq miss cycles
system.cpu00.dcache.LoadLockedReq_miss_latency::total       133500                       # number of LoadLockedReq miss cycles
system.cpu00.dcache.StoreCondReq_miss_latency::cpu00.data         7500                       # number of StoreCondReq miss cycles
system.cpu00.dcache.StoreCondReq_miss_latency::total         7500                       # number of StoreCondReq miss cycles
system.cpu00.dcache.demand_miss_latency::cpu00.data    133766490                       # number of demand (read+write) miss cycles
system.cpu00.dcache.demand_miss_latency::total    133766490                       # number of demand (read+write) miss cycles
system.cpu00.dcache.overall_miss_latency::cpu00.data    133766490                       # number of overall miss cycles
system.cpu00.dcache.overall_miss_latency::total    133766490                       # number of overall miss cycles
system.cpu00.dcache.ReadReq_accesses::cpu00.data      8919885                       # number of ReadReq accesses(hits+misses)
system.cpu00.dcache.ReadReq_accesses::total      8919885                       # number of ReadReq accesses(hits+misses)
system.cpu00.dcache.WriteReq_accesses::cpu00.data      8921161                       # number of WriteReq accesses(hits+misses)
system.cpu00.dcache.WriteReq_accesses::total      8921161                       # number of WriteReq accesses(hits+misses)
system.cpu00.dcache.LoadLockedReq_accesses::cpu00.data           25                       # number of LoadLockedReq accesses(hits+misses)
system.cpu00.dcache.LoadLockedReq_accesses::total           25                       # number of LoadLockedReq accesses(hits+misses)
system.cpu00.dcache.StoreCondReq_accesses::cpu00.data           25                       # number of StoreCondReq accesses(hits+misses)
system.cpu00.dcache.StoreCondReq_accesses::total           25                       # number of StoreCondReq accesses(hits+misses)
system.cpu00.dcache.demand_accesses::cpu00.data     17841046                       # number of demand (read+write) accesses
system.cpu00.dcache.demand_accesses::total     17841046                       # number of demand (read+write) accesses
system.cpu00.dcache.overall_accesses::cpu00.data     17841046                       # number of overall (read+write) accesses
system.cpu00.dcache.overall_accesses::total     17841046                       # number of overall (read+write) accesses
system.cpu00.dcache.ReadReq_miss_rate::cpu00.data     0.000027                       # miss rate for ReadReq accesses
system.cpu00.dcache.ReadReq_miss_rate::total     0.000027                       # miss rate for ReadReq accesses
system.cpu00.dcache.WriteReq_miss_rate::cpu00.data     0.000281                       # miss rate for WriteReq accesses
system.cpu00.dcache.WriteReq_miss_rate::total     0.000281                       # miss rate for WriteReq accesses
[...]
system.tol2bus.pkt_count_system.cpu10.dcache.mem_side::system.l2.cpu_side       139869                       # Packet count per connected master and slave (bytes)
system.tol2bus.pkt_count_system.cpu11.icache.mem_side::system.l2.cpu_side         2111                       # Packet count per connected master and slave (bytes)
system.tol2bus.pkt_count_system.cpu11.dcache.mem_side::system.l2.cpu_side       135635                       # Packet count per connected master and slave (bytes)
system.tol2bus.pkt_count_system.cpu12.icache.mem_side::system.l2.cpu_side         1953                       # Packet count per connected master and slave (bytes)
system.tol2bus.pkt_count_system.cpu12.dcache.mem_side::system.l2.cpu_side       138900                       # Packet count per connected master and slave (bytes)
system.tol2bus.pkt_count_system.cpu13.icache.mem_side::system.l2.cpu_side         1678                       # Packet count per connected master and slave (bytes)
system.tol2bus.pkt_count_system.cpu13.dcache.mem_side::system.l2.cpu_side       128087                       # Packet count per connected master and slave (bytes)
system.tol2bus.pkt_count_system.cpu14.icache.mem_side::system.l2.cpu_side         1628                       # Packet count per connected master and slave (bytes)
system.tol2bus.pkt_count_system.cpu14.dcache.mem_side::system.l2.cpu_side       100380                       # Packet count per connected master and slave (bytes)
system.tol2bus.pkt_count_system.cpu15.icache.mem_side::system.l2.cpu_side         1612                       # Packet count per connected master and slave (bytes)
system.tol2bus.pkt_count_system.cpu15.dcache.mem_side::system.l2.cpu_side        96657                       # Packet count per connected master and slave (bytes)
system.tol2bus.pkt_count_system.cpu16.icache.mem_side::system.l2.cpu_side         1903                       # Packet count per connected master and slave (bytes)
system.tol2bus.pkt_count_system.cpu16.dcache.mem_side::system.l2.cpu_side        58844                       # Packet count per connected master and slave (bytes)
system.tol2bus.pkt_count::total               1589459                       # Packet count per connected master and slave (bytes)
system.tol2bus.pkt_size_system.cpu00.icache.mem_side::system.l2.cpu_side        24512                       # Cumulative packet size per connected master and slave (bytes)
system.tol2bus.pkt_size_system.cpu00.dcache.mem_side::system.l2.cpu_side        24640                       # Cumulative packet size per connected master and slave (bytes)
system.tol2bus.pkt_size_system.cpu01.icache.mem_side::system.l2.cpu_side        51328                       # Cumulative packet size per connected master and slave (bytes)
system.tol2bus.pkt_size_system.cpu01.dcache.mem_side::system.l2.cpu_side        19328                       # Cumulative packet size per connected master and slave (bytes)
system.tol2bus.pkt_size_system.cpu02.icache.mem_side::system.l2.cpu_side        53824                       # Cumulative packet size per connected master and slave (bytes)
system.tol2bus.pkt_size_system.cpu02.dcache.mem_side::system.l2.cpu_side        23360                       # Cumulative packet size per connected master and slave (bytes)
system.tol2bus.pkt_size_system.cpu03.icache.mem_side::system.l2.cpu_side        51456                       # Cumulative packet size per connected master and slave (bytes)
system.tol2bus.pkt_size_system.cpu03.dcache.mem_side::system.l2.cpu_side        20480                       # Cumulative packet size per connected master and slave (bytes)
system.tol2bus.pkt_size_system.cpu04.icache.mem_side::system.l2.cpu_side        51392                       # Cumulative packet size per connected master and slave (bytes)
system.tol2bus.pkt_size_system.cpu04.dcache.mem_side::system.l2.cpu_side        54976                       # Cumulative packet size per connected master and slave (bytes)
system.tol2bus.pkt_size_system.cpu05.icache.mem_side::system.l2.cpu_side        63552                       # Cumulative packet size per connected master and slave (bytes)
system.tol2bus.pkt_size_system.cpu05.dcache.mem_side::system.l2.cpu_side        45952                       # Cumulative packet size per connected master and slave (bytes)
system.tol2bus.pkt_size_system.cpu06.icache.mem_side::system.l2.cpu_side        59520                       # Cumulative packet size per connected master and slave (bytes)
system.tol2bus.pkt_size_system.cpu06.dcache.mem_side::system.l2.cpu_side        98688                       # Cumulative packet size per connected master and slave (bytes)
system.tol2bus.pkt_size_system.cpu07.icache.mem_side::system.l2.cpu_side        64704                       # Cumulative packet size per connected master and slave (bytes)
system.tol2bus.pkt_size_system.cpu07.dcache.mem_side::system.l2.cpu_side        79808                       # Cumulative packet size per connected master and slave (bytes)
system.tol2bus.pkt_size_system.cpu08.icache.mem_side::system.l2.cpu_side        63104                       # Cumulative packet size per connected master and slave (bytes)
system.tol2bus.pkt_size_system.cpu08.dcache.mem_side::system.l2.cpu_side       105920                       # Cumulative packet size per connected master and slave (bytes)
system.tol2bus.pkt_size_system.cpu09.icache.mem_side::system.l2.cpu_side        62144                       # Cumulative packet size per connected master and slave (bytes)
system.tol2bus.pkt_size_system.cpu09.dcache.mem_side::system.l2.cpu_side        89408                       # Cumulative packet size per connected master and slave (bytes)
system.tol2bus.pkt_size_system.cpu10.icache.mem_side::system.l2.cpu_side        60928                       # Cumulative packet size per connected master and slave (bytes)
system.tol2bus.pkt_size_system.cpu10.dcache.mem_side::system.l2.cpu_side        99968                       # Cumulative packet size per connected master and slave (bytes)
system.tol2bus.pkt_size_system.cpu11.icache.mem_side::system.l2.cpu_side        65600                       # Cumulative packet size per connected master and slave (bytes)
system.tol2bus.pkt_size_system.cpu11.dcache.mem_side::system.l2.cpu_side       110336                       # Cumulative packet size per connected master and slave (bytes)
system.tol2bus.pkt_size_system.cpu12.icache.mem_side::system.l2.cpu_side        57536                       # Cumulative packet size per connected master and slave (bytes)
system.tol2bus.pkt_size_system.cpu12.dcache.mem_side::system.l2.cpu_side       117440                       # Cumulative packet size per connected master and slave (bytes)
system.tol2bus.pkt_size_system.cpu13.icache.mem_side::system.l2.cpu_side        53696                       # Cumulative packet size per connected master and slave (bytes)
system.tol2bus.pkt_size_system.cpu13.dcache.mem_side::system.l2.cpu_side        82432                       # Cumulative packet size per connected master and slave (bytes)
system.tol2bus.pkt_size_system.cpu14.icache.mem_side::system.l2.cpu_side        52096                       # Cumulative packet size per connected master and slave (bytes)
system.tol2bus.pkt_size_system.cpu14.dcache.mem_side::system.l2.cpu_side        49216                       # Cumulative packet size per connected master and slave (bytes)
system.tol2bus.pkt_size_system.cpu15.icache.mem_side::system.l2.cpu_side        51584                       # Cumulative packet size per connected master and slave (bytes)
system.tol2bus.pkt_size_system.cpu15.dcache.mem_side::system.l2.cpu_side        57920                       # Cumulative packet size per connected master and slave (bytes)
system.tol2bus.pkt_size_system.cpu16.icache.mem_side::system.l2.cpu_side        60864                       # Cumulative packet size per connected master and slave (bytes)
system.tol2bus.pkt_size_system.cpu16.dcache.mem_side::system.l2.cpu_side         9664                       # Cumulative packet size per connected master and slave (bytes)
system.tol2bus.pkt_size::total                2037376                       # Cumulative packet size per connected master and slave (bytes)
system.tol2bus.snoops                         1302235                       # Total snoops (count)
system.tol2bus.snoop_fanout::samples          1446158                       # Request fanout histogram
system.tol2bus.snoop_fanout::mean                  33                       # Request fanout histogram
system.tol2bus.snoop_fanout::stdev                  0                       # Request fanout histogram
system.tol2bus.snoop_fanout::underflows             0      0.00%      0.00% # Request fanout histogram
system.tol2bus.snoop_fanout::0                      0      0.00%      0.00% # Request fanout histogram
system.tol2bus.snoop_fanout::1                      0      0.00%      0.00% # Request fanout histogram
system.tol2bus.snoop_fanout::2                      0      0.00%      0.00% # Request fanout histogram
system.tol2bus.snoop_fanout::3                      0      0.00%      0.00% # Request fanout histogram
system.tol2bus.snoop_fanout::4                      0      0.00%      0.00% # Request fanout histogram
system.tol2bus.snoop_fanout::5                      0      0.00%      0.00% # Request fanout histogram
system.tol2bus.snoop_fanout::6                      0      0.00%      0.00% # Request fanout histogram
system.tol2bus.snoop_fanout::7                      0      0.00%      0.00% # Request fanout histogram
system.tol2bus.snoop_fanout::8                      0      0.00%      0.00% # Request fanout histogram
system.tol2bus.snoop_fanout::9                      0      0.00%      0.00% # Request fanout histogram
system.tol2bus.snoop_fanout::10                     0      0.00%      0.00% # Request fanout histogram
system.tol2bus.snoop_fanout::11                     0      0.00%      0.00% # Request fanout histogram
system.tol2bus.snoop_fanout::12                     0      0.00%      0.00% # Request fanout histogram
system.tol2bus.snoop_fanout::13                     0      0.00%      0.00% # Request fanout histogram
system.tol2bus.snoop_fanout::14                     0      0.00%      0.00% # Request fanout histogram
system.tol2bus.snoop_fanout::15                     0      0.00%      0.00% # Request fanout histogram
system.tol2bus.snoop_fanout::16                     0      0.00%      0.00% # Request fanout histogram
system.tol2bus.snoop_fanout::17                     0      0.00%      0.00% # Request fanout histogram
system.tol2bus.snoop_fanout::18                     0      0.00%      0.00% # Request fanout histogram
system.tol2bus.snoop_fanout::19                     0      0.00%      0.00% # Request fanout histogram
system.tol2bus.snoop_fanout::20                     0      0.00%      0.00% # Request fanout histogram
system.tol2bus.snoop_fanout::21                     0      0.00%      0.00% # Request fanout histogram
system.tol2bus.snoop_fanout::22                     0      0.00%      0.00% # Request fanout histogram
system.tol2bus.snoop_fanout::23                     0      0.00%      0.00% # Request fanout histogram
system.tol2bus.snoop_fanout::24                     0      0.00%      0.00% # Request fanout histogram
system.tol2bus.snoop_fanout::25                     0      0.00%      0.00% # Request fanout histogram
system.tol2bus.snoop_fanout::26                     0      0.00%      0.00% # Request fanout histogram
system.tol2bus.snoop_fanout::27                     0      0.00%      0.00% # Request fanout histogram
system.tol2bus.snoop_fanout::28                     0      0.00%      0.00% # Request fanout histogram
system.tol2bus.snoop_fanout::29                     0      0.00%      0.00% # Request fanout histogram
system.tol2bus.snoop_fanout::30                     0      0.00%      0.00% # Request fanout histogram
system.tol2bus.snoop_fanout::31                     0      0.00%      0.00% # Request fanout histogram
system.tol2bus.snoop_fanout::32                     0      0.00%      0.00% # Request fanout histogram
system.tol2bus.snoop_fanout::33               1446158    100.00%    100.00% # Request fanout histogram
system.tol2bus.snoop_fanout::34                     0      0.00%    100.00% # Request fanout histogram
system.tol2bus.snoop_fanout::overflows              0      0.00%    100.00% # Request fanout histogram
system.tol2bus.snoop_fanout::min_value             33                       # Request fanout histogram
system.tol2bus.snoop_fanout::max_value             33                       # Request fanout histogram
system.tol2bus.snoop_fanout::total            1446158                       # Request fanout histogram
system.tol2bus.reqLayer0.occupancy          728292968                       # Layer occupancy (ticks)
system.tol2bus.reqLayer0.utilization              4.1                       # Layer utilization (%)
system.tol2bus.respLayer0.occupancy            575498                       # Layer occupancy (ticks)
system.tol2bus.respLayer0.utilization             0.0                       # Layer utilization (%)
system.tol2bus.respLayer1.occupancy            573994                       # Layer occupancy (ticks)
system.tol2bus.respLayer1.utilization             0.0                       # Layer utilization (%)
system.tol2bus.respLayer4.occupancy           1205487                       # Layer occupancy (ticks)
system.tol2bus.respLayer4.utilization             0.0                       # Layer utilization (%)
system.tol2bus.respLayer5.occupancy          60074201                       # Layer occupancy (ticks)
system.tol2bus.respLayer5.utilization             0.3                       # Layer utilization (%)
system.tol2bus.respLayer8.occupancy           1287414                       # Layer occupancy (ticks)
system.tol2bus.respLayer8.utilization             0.0                       # Layer utilization (%)
system.tol2bus.respLayer9.occupancy          76221345                       # Layer occupancy (ticks)
system.tol2bus.respLayer9.utilization             0.4                       # Layer utilization (%)
system.tol2bus.respLayer12.occupancy          1240390                       # Layer occupancy (ticks)
system.tol2bus.respLayer12.utilization            0.0                       # Layer utilization (%)
system.tol2bus.respLayer13.occupancy         64707198                       # Layer occupancy (ticks)
system.tol2bus.respLayer13.utilization            0.4                       # Layer utilization (%)
system.tol2bus.respLayer16.occupancy          1222424                       # Layer occupancy (ticks)
system.tol2bus.respLayer16.utilization            0.0                       # Layer utilization (%)
system.tol2bus.respLayer17.occupancy        112488484                       # Layer occupancy (ticks)
system.tol2bus.respLayer17.utilization            0.6                       # Layer utilization (%)
system.tol2bus.respLayer20.occupancy          1499978                       # Layer occupancy (ticks)
system.tol2bus.respLayer20.utilization            0.0                       # Layer utilization (%)
system.tol2bus.respLayer21.occupancy         97980412                       # Layer occupancy (ticks)
system.tol2bus.respLayer21.utilization            0.5                       # Layer utilization (%)
system.tol2bus.respLayer24.occupancy          1420406                       # Layer occupancy (ticks)
system.tol2bus.respLayer24.utilization            0.0                       # Layer utilization (%)
system.tol2bus.respLayer25.occupancy        135086456                       # Layer occupancy (ticks)
system.tol2bus.respLayer25.utilization            0.8                       # Layer utilization (%)
system.tol2bus.respLayer28.occupancy          1543982                       # Layer occupancy (ticks)
system.tol2bus.respLayer28.utilization            0.0                       # Layer utilization (%)
system.tol2bus.respLayer29.occupancy        125967321                       # Layer occupancy (ticks)
system.tol2bus.respLayer29.utilization            0.7                       # Layer utilization (%)
system.tol2bus.respLayer32.occupancy          1480497                       # Layer occupancy (ticks)
system.tol2bus.respLayer32.utilization            0.0                       # Layer utilization (%)
system.tol2bus.respLayer33.occupancy        131799897                       # Layer occupancy (ticks)
system.tol2bus.respLayer33.utilization            0.7                       # Layer utilization (%)
system.tol2bus.respLayer36.occupancy          1459985                       # Layer occupancy (ticks)
system.tol2bus.respLayer36.utilization            0.0                       # Layer utilization (%)
system.tol2bus.respLayer37.occupancy        154073195                       # Layer occupancy (ticks)
system.tol2bus.respLayer37.utilization            0.9                       # Layer utilization (%)
system.tol2bus.respLayer40.occupancy          1436954                       # Layer occupancy (ticks)
system.tol2bus.respLayer40.utilization            0.0                       # Layer utilization (%)
system.tol2bus.respLayer41.occupancy        174102649                       # Layer occupancy (ticks)
system.tol2bus.respLayer41.utilization            1.0                       # Layer utilization (%)
system.tol2bus.respLayer44.occupancy          1630984                       # Layer occupancy (ticks)
system.tol2bus.respLayer44.utilization            0.0                       # Layer utilization (%)
system.tol2bus.respLayer45.occupancy        164991567                       # Layer occupancy (ticks)
system.tol2bus.respLayer45.utilization            0.9                       # Layer utilization (%)
system.tol2bus.respLayer48.occupancy          1590477                       # Layer occupancy (ticks)
system.tol2bus.respLayer48.utilization            0.0                       # Layer utilization (%)
system.tol2bus.respLayer49.occupancy        170974434                       # Layer occupancy (ticks)
system.tol2bus.respLayer49.utilization            1.0                       # Layer utilization (%)
system.tol2bus.respLayer52.occupancy          1263980                       # Layer occupancy (ticks)
system.tol2bus.respLayer52.utilization            0.0                       # Layer utilization (%)
system.tol2bus.respLayer53.occupancy        160154967                       # Layer occupancy (ticks)
system.tol2bus.respLayer53.utilization            0.9                       # Layer utilization (%)
system.tol2bus.respLayer56.occupancy          1223980                       # Layer occupancy (ticks)
system.tol2bus.respLayer56.utilization            0.0                       # Layer utilization (%)
system.tol2bus.respLayer57.occupancy        124948610                       # Layer occupancy (ticks)
system.tol2bus.respLayer57.utilization            0.7                       # Layer utilization (%)
system.tol2bus.respLayer60.occupancy          1211496                       # Layer occupancy (ticks)
system.tol2bus.respLayer60.utilization            0.0                       # Layer utilization (%)
system.tol2bus.respLayer61.occupancy        126663900                       # Layer occupancy (ticks)
system.tol2bus.respLayer61.utilization            0.7                       # Layer utilization (%)
system.tol2bus.respLayer64.occupancy          1429992                       # Layer occupancy (ticks)
system.tol2bus.respLayer64.utilization            0.0                       # Layer utilization (%)
system.tol2bus.respLayer65.occupancy         79093799                       # Layer occupancy (ticks)
system.tol2bus.respLayer65.utilization            0.4                       # Layer utilization (%)

---------- End Simulation Statistics   ----------
