
---------- Begin Simulation Statistics ----------
sim_seconds                                  0.040027                       # Number of seconds simulated
sim_ticks                                 40026820000                       # Number of ticks simulated
final_tick                                40026820000                       # Number of ticks from beginning of simulation (restored from checkpoints and never reset)
sim_freq                                 1000000000000                       # Frequency of simulated ticks
host_inst_rate                                 145187                       # Simulator instruction rate (inst/s)
host_op_rate                                   147430                       # Simulator op (including micro ops) rate (op/s)
host_tick_rate                               14852467                       # Simulator tick rate (ticks/s)
host_mem_usage                                 885096                       # Number of bytes of host memory used
host_seconds                                  2694.96                       # Real time elapsed on the host
sim_insts                                   391272329                       # Number of instructions simulated
sim_ops                                     397317921                       # Number of ops (including micro ops) simulated
system.voltage_domain.voltage                       1                       # Voltage in Volts
system.clk_domain.clock                          1000                       # Clock period in ticks
system.physmem.bytes_read::cpu00.inst           20608                       # Number of bytes read from this memory
system.physmem.bytes_read::cpu00.data           19072                       # Number of bytes read from this memory
system.physmem.bytes_read::cpu01.inst            3136                       # Number of bytes read from this memory
system.physmem.bytes_read::cpu01.data          195008                       # Number of bytes read from this memory
system.physmem.bytes_read::cpu02.inst            2048                       # Number of bytes read from this memory
system.physmem.bytes_read::cpu02.data          176576                       # Number of bytes read from this memory
system.physmem.bytes_read::cpu03.inst            2816                       # Number of bytes read from this memory
system.physmem.bytes_read::cpu03.data          205824                       # Number of bytes read from this memory
system.physmem.bytes_read::cpu04.inst            3392                       # Number of bytes read from this memory
system.physmem.bytes_read::cpu04.data          202496                       # Number of bytes read from this memory
system.physmem.bytes_read::cpu05.inst            1536                       # Number of bytes read from this memory
system.physmem.bytes_read::cpu05.data          139136                       # Number of bytes read from this memory
system.physmem.bytes_read::cpu06.inst            3776                       # Number of bytes read from this memory
system.physmem.bytes_read::cpu06.data          145664                       # Number of bytes read from this memory
system.physmem.bytes_read::cpu07.inst             896                       # Number of bytes read from this memory
system.physmem.bytes_read::cpu07.data          149952                       # Number of bytes read from this memory
system.physmem.bytes_read::cpu08.inst            2560                       # Number of bytes read from this memory
system.physmem.bytes_read::cpu08.data          125184                       # Number of bytes read from this memory
system.physmem.bytes_read::cpu09.inst            1216                       # Number of bytes read from this memory
system.physmem.bytes_read::cpu09.data          162432                       # Number of bytes read from this memory
system.physmem.bytes_read::cpu10.inst            3328                       # Number of bytes read from this memory
system.physmem.bytes_read::cpu10.data          144896                       # Number of bytes read from this memory
system.physmem.bytes_read::cpu11.inst             640                       # Number of bytes read from this memory
system.physmem.bytes_read::cpu11.data          159232                       # Number of bytes read from this memory
system.physmem.bytes_read::cpu12.inst             640                       # Number of bytes read from this memory
system.physmem.bytes_read::cpu12.data          174400                       # Number of bytes read from this memory
system.physmem.bytes_read::cpu13.inst             576                       # Number of bytes read from this memory
system.physmem.bytes_read::cpu13.data          129664                       # Number of bytes read from this memory
system.physmem.bytes_read::cpu14.inst             384                       # Number of bytes read from this memory
system.physmem.bytes_read::cpu14.data          165120                       # Number of bytes read from this memory
system.physmem.bytes_read::cpu15.inst             384                       # Number of bytes read from this memory
system.physmem.bytes_read::cpu15.data          134400                       # Number of bytes read from this memory
system.physmem.bytes_read::cpu16.inst            1792                       # Number of bytes read from this memory
system.physmem.bytes_read::cpu16.data          130112                       # Number of bytes read from this memory
system.physmem.bytes_read::total              2608896                       # Number of bytes read from this memory
system.physmem.bytes_inst_read::cpu00.inst        20608                       # Number of instructions bytes read from this memory
system.physmem.bytes_inst_read::cpu01.inst         3136                       # Number of instructions bytes read from this memory
system.physmem.bytes_inst_read::cpu02.inst         2048                       # Number of instructions bytes read from this memory
system.physmem.bytes_inst_read::cpu03.inst         2816                       # Number of instructions bytes read from this memory
system.physmem.bytes_inst_read::cpu04.inst         3392                       # Number of instructions bytes read from this memory
system.physmem.bytes_inst_read::cpu05.inst         1536                       # Number of instructions bytes read from this memory
system.physmem.bytes_inst_read::cpu06.inst         3776                       # Number of instructions bytes read from this memory
system.physmem.bytes_inst_read::cpu07.inst          896                       # Number of instructions bytes read from this memory
system.physmem.bytes_inst_read::cpu08.inst         2560                       # Number of instructions bytes read from this memory
system.physmem.bytes_inst_read::cpu09.inst         1216                       # Number of instructions bytes read from this memory
system.physmem.bytes_inst_read::cpu10.inst         3328                       # Number of instructions bytes read from this memory
system.physmem.bytes_inst_read::cpu11.inst          640                       # Number of instructions bytes read from this memory
system.physmem.bytes_inst_read::cpu12.inst          640                       # Number of instructions bytes read from this memory
system.physmem.bytes_inst_read::cpu13.inst          576                       # Number of instructions bytes read from this memory
system.physmem.bytes_inst_read::cpu14.inst          384                       # Number of instructions bytes read from this memory
system.physmem.bytes_inst_read::cpu15.inst          384                       # Number of instructions bytes read from this memory
system.physmem.bytes_inst_read::cpu16.inst         1792                       # Number of instructions bytes read from this memory
system.physmem.bytes_inst_read::total           49728                       # Number of instructions bytes read from this memory
system.physmem.bytes_written::writebacks        51968                       # Number of bytes written to this memory
system.physmem.bytes_written::total             51968                       # Number of bytes written to this memory
system.physmem.num_reads::cpu00.inst              322                       # Number of read requests responded to by this memory
system.physmem.num_reads::cpu00.data              298                       # Number of read requests responded to by this memory
system.physmem.num_reads::cpu01.inst               49                       # Number of read requests responded to by this memory
system.physmem.num_reads::cpu01.data             3047                       # Number of read requests responded to by this memory
system.physmem.num_reads::cpu02.inst               32                       # Number of read requests responded to by this memory
system.physmem.num_reads::cpu02.data             2759                       # Number of read requests responded to by this memory
system.physmem.num_reads::cpu03.inst               44                       # Number of read requests responded to by this memory
system.physmem.num_reads::cpu03.data             3216                       # Number of read requests responded to by this memory
system.physmem.num_reads::cpu04.inst               53                       # Number of read requests responded to by this memory
system.physmem.num_reads::cpu04.data             3164                       # Number of read requests responded to by this memory
system.physmem.num_reads::cpu05.inst               24                       # Number of read requests responded to by this memory
system.physmem.num_reads::cpu05.data             2174                       # Number of read requests responded to by this memory
system.physmem.num_reads::cpu06.inst               59                       # Number of read requests responded to by this memory
system.physmem.num_reads::cpu06.data             2276                       # Number of read requests responded to by this memory
system.physmem.num_reads::cpu07.inst               14                       # Number of read requests responded to by this memory
system.physmem.num_reads::cpu07.data             2343                       # Number of read requests responded to by this memory
system.physmem.num_reads::cpu08.inst               40                       # Number of read requests responded to by this memory
system.physmem.num_reads::cpu08.data             1956                       # Number of read requests responded to by this memory
system.physmem.num_reads::cpu09.inst               19                       # Number of read requests responded to by this memory
system.physmem.num_reads::cpu09.data             2538                       # Number of read requests responded to by this memory
system.physmem.num_reads::cpu10.inst               52                       # Number of read requests responded to by this memory
system.physmem.num_reads::cpu10.data             2264                       # Number of read requests responded to by this memory
system.physmem.num_reads::cpu11.inst               10                       # Number of read requests responded to by this memory
system.physmem.num_reads::cpu11.data             2488                       # Number of read requests responded to by this memory
system.physmem.num_reads::cpu12.inst               10                       # Number of read requests responded to by this memory
system.physmem.num_reads::cpu12.data             2725                       # Number of read requests responded to by this memory
system.physmem.num_reads::cpu13.inst                9                       # Number of read requests responded to by this memory
system.physmem.num_reads::cpu13.data             2026                       # Number of read requests responded to by this memory
system.physmem.num_reads::cpu14.inst                6                       # Number of read requests responded to by this memory
system.physmem.num_reads::cpu14.data             2580                       # Number of read requests responded to by this memory
system.physmem.num_reads::cpu15.inst                6                       # Number of read requests responded to by this memory
system.physmem.num_reads::cpu15.data             2100                       # Number of read requests responded to by this memory
system.physmem.num_reads::cpu16.inst               28                       # Number of read requests responded to by this memory
system.physmem.num_reads::cpu16.data             2033                       # Number of read requests responded to by this memory
system.physmem.num_reads::total                 40764                       # Number of read requests responded to by this memory
system.physmem.num_writes::writebacks             812                       # Number of write requests responded to by this memory
system.physmem.num_writes::total                  812                       # Number of write requests responded to by this memory
system.physmem.bw_read::cpu00.inst             514855                       # Total read bandwidth from this memory (bytes/s)
system.physmem.bw_read::cpu00.data             476481                       # Total read bandwidth from this memory (bytes/s)
system.physmem.bw_read::cpu01.inst              78347                       # Total read bandwidth from this memory (bytes/s)
system.physmem.bw_read::cpu01.data            4871933                       # Total read bandwidth from this memory (bytes/s)
system.physmem.bw_read::cpu02.inst              51166                       # Total read bandwidth from this memory (bytes/s)
system.physmem.bw_read::cpu02.data            4411442                       # Total read bandwidth from this memory (bytes/s)
system.physmem.bw_read::cpu03.inst              70353                       # Total read bandwidth from this memory (bytes/s)
system.physmem.bw_read::cpu03.data            5142152                       # Total read bandwidth from this memory (bytes/s)
system.physmem.bw_read::cpu04.inst              84743                       # Total read bandwidth from this memory (bytes/s)
system.physmem.bw_read::cpu04.data            5059008                       # Total read bandwidth from this memory (bytes/s)
system.physmem.bw_read::cpu05.inst              38374                       # Total read bandwidth from this memory (bytes/s)
system.physmem.bw_read::cpu05.data            3476069                       # Total read bandwidth from this memory (bytes/s)
system.physmem.bw_read::cpu06.inst              94337                       # Total read bandwidth from this memory (bytes/s)
system.physmem.bw_read::cpu06.data            3639160                       # Total read bandwidth from this memory (bytes/s)
system.physmem.bw_read::cpu07.inst              22385                       # Total read bandwidth from this memory (bytes/s)
system.physmem.bw_read::cpu07.data            3746288                       # Total read bandwidth from this memory (bytes/s)
system.physmem.bw_read::cpu08.inst              63957                       # Total read bandwidth from this memory (bytes/s)
system.physmem.bw_read::cpu08.data            3127503                       # Total read bandwidth from this memory (bytes/s)
system.physmem.bw_read::cpu09.inst              30380                       # Total read bandwidth from this memory (bytes/s)
system.physmem.bw_read::cpu09.data            4058079                       # Total read bandwidth from this memory (bytes/s)
system.physmem.bw_read::cpu10.inst              83144                       # Total read bandwidth from this memory (bytes/s)
system.physmem.bw_read::cpu10.data            3619973                       # Total read bandwidth from this memory (bytes/s)
system.physmem.bw_read::cpu11.inst              15989                       # Total read bandwidth from this memory (bytes/s)
system.physmem.bw_read::cpu11.data            3978133                       # Total read bandwidth from this memory (bytes/s)
system.physmem.bw_read::cpu12.inst              15989                       # Total read bandwidth from this memory (bytes/s)
system.physmem.bw_read::cpu12.data            4357079                       # Total read bandwidth from this memory (bytes/s)
system.physmem.bw_read::cpu13.inst              14390                       # Total read bandwidth from this memory (bytes/s)
system.physmem.bw_read::cpu13.data            3239428                       # Total read bandwidth from this memory (bytes/s)
system.physmem.bw_read::cpu14.inst               9594                       # Total read bandwidth from this memory (bytes/s)
system.physmem.bw_read::cpu14.data            4125234                       # Total read bandwidth from this memory (bytes/s)
system.physmem.bw_read::cpu15.inst               9594                       # Total read bandwidth from this memory (bytes/s)
system.physmem.bw_read::cpu15.data            3357749                       # Total read bandwidth from this memory (bytes/s)
system.physmem.bw_read::cpu16.inst              44770                       # Total read bandwidth from this memory (bytes/s)
system.physmem.bw_read::cpu16.data            3250620                       # Total read bandwidth from this memory (bytes/s)
system.physmem.bw_read::total                65178698                       # Total read bandwidth from this memory (bytes/s)
system.physmem.bw_inst_read::cpu00.inst        514855                       # Instruction read bandwidth from this memory (bytes/s)
system.physmem.bw_inst_read::cpu01.inst         78347                       # Instruction read bandwidth from this memory (bytes/s)
system.physmem.bw_inst_read::cpu02.inst         51166                       # Instruction read bandwidth from this memory (bytes/s)
system.physmem.bw_inst_read::cpu03.inst         70353                       # Instruction read bandwidth from this memory (bytes/s)
system.physmem.bw_inst_read::cpu04.inst         84743                       # Instruction read bandwidth from this memory (bytes/s)
system.physmem.bw_inst_read::cpu05.inst         38374                       # Instruction read bandwidth from this memory (bytes/s)
system.physmem.bw_inst_read::cpu06.inst         94337                       # Instruction read bandwidth from this memory (bytes/s)
system.physmem.bw_inst_read::cpu07.inst         22385                       # Instruction read bandwidth from this memory (bytes/s)
system.physmem.bw_inst_read::cpu08.inst         63957                       # Instruction read bandwidth from this memory (bytes/s)
system.physmem.bw_inst_read::cpu09.inst         30380                       # Instruction read bandwidth from this memory (bytes/s)
system.physmem.bw_inst_read::cpu10.inst         83144                       # Instruction read bandwidth from this memory (bytes/s)
system.physmem.bw_inst_read::cpu11.inst         15989                       # Instruction read bandwidth from this memory (bytes/s)
system.physmem.bw_inst_read::cpu12.inst         15989                       # Instruction read bandwidth from this memory (bytes/s)
system.physmem.bw_inst_read::cpu13.inst         14390                       # Instruction read bandwidth from this memory (bytes/s)
system.physmem.bw_inst_read::cpu14.inst          9594                       # Instruction read bandwidth from this memory (bytes/s)
system.physmem.bw_inst_read::cpu15.inst          9594                       # Instruction read bandwidth from this memory (bytes/s)
system.physmem.bw_inst_read::cpu16.inst         44770                       # Instruction read bandwidth from this memory (bytes/s)
system.physmem.bw_inst_read::total            1242367                       # Instruction read bandwidth from this memory (bytes/s)
system.physmem.bw_write::writebacks           1298329                       # Write bandwidth from this memory (bytes/s)
system.physmem.bw_write::total                1298329                       # Write bandwidth from this memory (bytes/s)
system.physmem.bw_total::writebacks           1298329                       # Total bandwidth to/from this memory (bytes/s)
system.physmem.bw_total::cpu00.inst            514855                       # Total bandwidth to/from this memory (bytes/s)
system.physmem.bw_total::cpu00.data            476481                       # Total bandwidth to/from this memory (bytes/s)
system.physmem.bw_total::cpu01.inst             78347                       # Total bandwidth to/from this memory (bytes/s)
system.physmem.bw_total::cpu01.data           4871933                       # Total bandwidth to/from this memory (bytes/s)
system.physmem.bw_total::cpu02.inst             51166                       # Total bandwidth to/from this memory (bytes/s)
system.physmem.bw_total::cpu02.data           4411442                       # Total bandwidth to/from this memory (bytes/s)
system.physmem.bw_total::cpu03.inst             70353                       # Total bandwidth to/from this memory (bytes/s)
system.physmem.bw_total::cpu03.data           5142152                       # Total bandwidth to/from this memory (bytes/s)
system.physmem.bw_total::cpu04.inst             84743                       # Total bandwidth to/from this memory (bytes/s)
system.physmem.bw_total::cpu04.data           5059008                       # Total bandwidth to/from this memory (bytes/s)
system.physmem.bw_total::cpu05.inst             38374                       # Total bandwidth to/from this memory (bytes/s)
system.physmem.bw_total::cpu05.data           3476069                       # Total bandwidth to/from this memory (bytes/s)
system.physmem.bw_total::cpu06.inst             94337                       # Total bandwidth to/from this memory (bytes/s)
system.physmem.bw_total::cpu06.data           3639160                       # Total bandwidth to/from this memory (bytes/s)
system.physmem.bw_total::cpu07.inst             22385                       # Total bandwidth to/from this memory (bytes/s)
system.physmem.bw_total::cpu07.data           3746288                       # Total bandwidth to/from this memory (bytes/s)
system.physmem.bw_total::cpu08.inst             63957                       # Total bandwidth to/from this memory (bytes/s)
system.physmem.bw_total::cpu08.data           3127503                       # Total bandwidth to/from this memory (bytes/s)
system.physmem.bw_total::cpu09.inst             30380                       # Total bandwidth to/from this memory (bytes/s)
system.physmem.bw_total::cpu09.data           4058079                       # Total bandwidth to/from this memory (bytes/s)
system.physmem.bw_total::cpu10.inst             83144                       # Total bandwidth to/from this memory (bytes/s)
system.physmem.bw_total::cpu10.data           3619973                       # Total bandwidth to/from this memory (bytes/s)
system.physmem.bw_total::cpu11.inst             15989                       # Total bandwidth to/from this memory (bytes/s)
system.physmem.bw_total::cpu11.data           3978133                       # Total bandwidth to/from this memory (bytes/s)
system.physmem.bw_total::cpu12.inst             15989                       # Total bandwidth to/from this memory (bytes/s)
system.physmem.bw_total::cpu12.data           4357079                       # Total bandwidth to/from this memory (bytes/s)
system.physmem.bw_total::cpu13.inst             14390                       # Total bandwidth to/from this memory (bytes/s)
system.physmem.bw_total::cpu13.data           3239428                       # Total bandwidth to/from this memory (bytes/s)
system.physmem.bw_total::cpu14.inst              9594                       # Total bandwidth to/from this memory (bytes/s)
system.physmem.bw_total::cpu14.data           4125234                       # Total bandwidth to/from this memory (bytes/s)
system.physmem.bw_total::cpu15.inst              9594                       # Total bandwidth to/from this memory (bytes/s)
system.physmem.bw_total::cpu15.data           3357749                       # Total bandwidth to/from this memory (bytes/s)
system.physmem.bw_total::cpu16.inst             44770                       # Total bandwidth to/from this memory (bytes/s)
system.physmem.bw_total::cpu16.data           3250620                       # Total bandwidth to/from this memory (bytes/s)
system.physmem.bw_total::total               66477027                       # Total bandwidth to/from this memory (bytes/s)
system.cpu00.branchPred.lookups              20001911                       # Number of BP lookups
system.cpu00.branchPred.condPredicted        20000688                       # Number of conditional branches predicted
system.cpu00.branchPred.condIncorrect             718                       # Number of conditional branches incorrect
system.cpu00.branchPred.BTBLookups           19999545                       # Number of BTB lookups
system.cpu00.branchPred.BTBHits              19999113                       # Number of BTB hits
system.cpu00.branchPred.BTBCorrect                  0                       # Number of correct BTB predictions (this stat may not work properly.
system.cpu00.branchPred.BTBHitPct           99.997840                       # BTB Hit Percentage
system.cpu00.branchPred.usedRAS                   460                       # Number of times the RAS was used to get a target.
system.cpu00.branchPred.RASInCorrect               51                       # Number of incorrect RAS predictions.
system.cpu00.dstage2_mmu.stage2_tlb.walker.walks            0                       # Table walker walks requested
system.cpu00.dstage2_mmu.stage2_tlb.walker.walkRequestOrigin_Requested::Data            0                       # Table walker requests started/completed, data/inst
system.cpu00.dstage2_mmu.stage2_tlb.walker.walkRequestOrigin_Requested::Inst            0                       # Table walker requests started/completed, data/inst
system.cpu00.dstage2_mmu.stage2_tlb.walker.walkRequestOrigin_Requested::total            0                       # Table walker requests started/completed, data/inst
system.cpu00.dstage2_mmu.stage2_tlb.walker.walkRequestOrigin_Completed::Data            0                       # Table walker requests started/completed, data/inst
system.cpu00.dstage2_mmu.stage2_tlb.walker.walkRequestOrigin_Completed::Inst            0                       # Table walker requests started/completed, data/inst
system.cpu00.dstage2_mmu.stage2_tlb.walker.walkRequestOrigin_Completed::total            0                       # Table walker requests started/completed, data/inst
system.cpu00.dstage2_mmu.stage2_tlb.walker.walkRequestOrigin::total            0                       # Table walker requests started/completed, data/inst
system.cpu00.dstage2_mmu.stage2_tlb.inst_hits            0                       # ITB inst hits
system.cpu00.dstage2_mmu.stage2_tlb.inst_misses            0                       # ITB inst misses
system.cpu00.dstage2_mmu.stage2_tlb.read_hits            0                       # DTB read hits
system.cpu00.dstage2_mmu.stage2_tlb.read_misses            0                       # DTB read misses
system.cpu00.dstage2_mmu.stage2_tlb.write_hits            0                       # DTB write hits
system.cpu00.dstage2_mmu.stage2_tlb.write_misses            0                       # DTB write misses
system.cpu00.dstage2_mmu.stage2_tlb.flush_tlb            0                       # Number of times complete TLB was flushed
system.cpu00.dstage2_mmu.stage2_tlb.flush_tlb_mva            0                       # Number of times TLB was flushed by MVA
system.cpu00.dstage2_mmu.stage2_tlb.flush_tlb_mva_asid            0                       # Number of times TLB was flushed by MVA & ASID
system.cpu00.dstage2_mmu.stage2_tlb.flush_tlb_asid            0                       # Number of times TLB was flushed by ASID
system.cpu00.dstage2_mmu.stage2_tlb.flush_entries            0                       # Number of entries that have been flushed from TLB
system.cpu00.dstage2_mmu.stage2_tlb.align_faults            0                       # Number of TLB faults due to alignment restrictions
system.cpu00.dstage2_mmu.stage2_tlb.prefetch_faults            0                       # Number of TLB faults due to prefetch
system.cpu00.dstage2_mmu.stage2_tlb.domain_faults            0                       # Number of TLB faults due to domain restrictions
system.cpu00.dstage2_mmu.stage2_tlb.perms_faults            0                       # Number of TLB faults due to permissions restrictions
system.cpu00.dstage2_mmu.stage2_tlb.read_accesses            0                       # DTB read accesses
system.cpu00.dstage2_mmu.stage2_tlb.write_accesses            0                       # DTB write accesses
system.cpu00.dstage2_mmu.stage2_tlb.inst_accesses            0                       # ITB inst accesses
system.cpu00.dstage2_mmu.stage2_tlb.hits            0                       # DTB hits
system.cpu00.dstage2_mmu.stage2_tlb.misses            0                       # DTB misses
system.cpu00.dstage2_mmu.stage2_tlb.accesses            0                       # DTB accesses
system.cpu00.dtb.walker.walks                       0                       # Table walker walks requested
system.cpu00.dtb.walker.walkRequestOrigin_Requested::Data            0                       # Table walker requests started/completed, data/inst
system.cpu00.dtb.walker.walkRequestOrigin_Requested::Inst            0                       # Table walker requests started/completed, data/inst
system.cpu00.dtb.walker.walkRequestOrigin_Requested::total            0                       # Table walker requests started/completed, data/inst
system.cpu00.dtb.walker.walkRequestOrigin_Completed::Data            0                       # Table walker requests started/completed, data/inst
system.cpu00.dtb.walker.walkRequestOrigin_Completed::Inst            0                       # Table walker requests started/completed, data/inst
system.cpu00.dtb.walker.walkRequestOrigin_Completed::total            0                       # Table walker requests started/completed, data/inst
system.cpu00.dtb.walker.walkRequestOrigin::total            0                       # Table walker requests started/completed, data/inst
system.cpu00.dtb.inst_hits                          0                       # ITB inst hits
system.cpu00.dtb.inst_misses                        0                       # ITB inst misses
system.cpu00.dtb.read_hits                          0                       # DTB read hits
system.cpu00.dtb.read_misses                        0                       # DTB read misses
system.cpu00.dtb.write_hits                         0                       # DTB write hits
system.cpu00.dtb.write_misses                       0                       # DTB write misses
system.cpu00.dtb.flush_tlb                          0                       # Number of times complete TLB was flushed
system.cpu00.dtb.flush_tlb_mva                      0                       # Number of times TLB was flushed by MVA
system.cpu00.dtb.flush_tlb_mva_asid                 0                       # Number of times TLB was flushed by MVA & ASID
system.cpu00.dtb.flush_tlb_asid                     0                       # Number of times TLB was flushed by ASID
system.cpu00.dtb.flush_entries                      0                       # Number of entries that have been flushed from TLB
system.cpu00.dtb.align_faults                       0                       # Number of TLB faults due to alignment restrictions
system.cpu00.dtb.prefetch_faults                    0                       # Number of TLB faults due to prefetch
system.cpu00.dtb.domain_faults                      0                       # Number of TLB faults due to domain restrictions
system.cpu00.dtb.perms_faults                       0                       # Number of TLB faults due to permissions restrictions
system.cpu00.dtb.read_accesses                      0                       # DTB read accesses
system.cpu00.dtb.write_accesses                     0                       # DTB write accesses
system.cpu00.dtb.inst_accesses                      0                       # ITB inst accesses
system.cpu00.dtb.hits                               0                       # DTB hits
system.cpu00.dtb.misses                             0                       # DTB misses
system.cpu00.dtb.accesses                           0                       # DTB accesses
system.cpu00.istage2_mmu.stage2_tlb.walker.walks            0                       # Table walker walks requested
system.cpu00.istage2_mmu.stage2_tlb.walker.walkRequestOrigin_Requested::Data            0                       # Table walker requests started/completed, data/inst
system.cpu00.istage2_mmu.stage2_tlb.walker.walkRequestOrigin_Requested::Inst            0                       # Table walker requests started/completed, data/inst
system.cpu00.istage2_mmu.stage2_tlb.walker.walkRequestOrigin_Requested::total            0                       # Table walker requests started/completed, data/inst
system.cpu00.istage2_mmu.stage2_tlb.walker.walkRequestOrigin_Completed::Data            0                       # Table walker requests started/completed, data/inst
system.cpu00.istage2_mmu.stage2_tlb.walker.walkRequestOrigin_Completed::Inst            0                       # Table walker requests started/completed, data/inst
system.cpu00.istage2_mmu.stage2_tlb.walker.walkRequestOrigin_Completed::total            0                       # Table walker requests started/completed, data/inst
system.cpu00.istage2_mmu.stage2_tlb.walker.walkRequestOrigin::total            0                       # Table walker requests started/completed, data/inst
system.cpu00.istage2_mmu.stage2_tlb.inst_hits            0                       # ITB inst hits
system.cpu00.istage2_mmu.stage2_tlb.inst_misses            0                       # ITB inst misses
system.cpu00.istage2_mmu.stage2_tlb.read_hits            0                       # DTB read hits
system.cpu00.istage2_mmu.stage2_tlb.read_misses            0                       # DTB read misses
system.cpu00.istage2_mmu.stage2_tlb.write_hits            0                       # DTB write hits
system.cpu00.istage2_mmu.stage2_tlb.write_misses            0                       # DTB write misses
system.cpu00.istage2_mmu.stage2_tlb.flush_tlb            0                       # Number of times complete TLB was flushed
system.cpu00.istage2_mmu.stage2_tlb.flush_tlb_mva            0                       # Number of times TLB was flushed by MVA
system.cpu00.istage2_mmu.stage2_tlb.flush_tlb_mva_asid            0                       # Number of times TLB was flushed by MVA & ASID
system.cpu00.istage2_mmu.stage2_tlb.flush_tlb_asid            0                       # Number of times TLB was flushed by ASID
system.cpu00.istage2_mmu.stage2_tlb.flush_entries            0                       # Number of entries that have been flushed from TLB
system.cpu00.istage2_mmu.stage2_tlb.align_faults            0                       # Number of TLB faults due to alignment restrictions
system.cpu00.istage2_mmu.stage2_tlb.prefetch_faults            0                       # Number of TLB faults due to prefetch
system.cpu00.istage2_mmu.stage2_tlb.domain_faults            0                       # Number of TLB faults due to domain restrictions
system.cpu00.istage2_mmu.stage2_tlb.perms_faults            0                       # Number of TLB faults due to permissions restrictions
system.cpu00.istage2_mmu.stage2_tlb.read_accesses            0                       # DTB read accesses
system.cpu00.istage2_mmu.stage2_tlb.write_accesses            0                       # DTB write accesses
system.cpu00.istage2_mmu.stage2_tlb.inst_accesses            0                       # ITB inst accesses
system.cpu00.istage2_mmu.stage2_tlb.hits            0                       # DTB hits
system.cpu00.istage2_mmu.stage2_tlb.misses            0                       # DTB misses
system.cpu00.istage2_mmu.stage2_tlb.accesses            0                       # DTB accesses
system.cpu00.itb.walker.walks                       0                       # Table walker walks requested
system.cpu00.itb.walker.walkRequestOrigin_Requested::Data            0                       # Table walker requests started/completed, data/inst
system.cpu00.itb.walker.walkRequestOrigin_Requested::Inst            0                       # Table walker requests started/completed, data/inst
system.cpu00.itb.walker.walkRequestOrigin_Requested::total            0                       # Table walker requests started/completed, data/inst
system.cpu00.itb.walker.walkRequestOrigin_Completed::Data            0                       # Table walker requests started/completed, data/inst
system.cpu00.itb.walker.walkRequestOrigin_Completed::Inst            0                       # Table walker requests started/completed, data/inst
system.cpu00.itb.walker.walkRequestOrigin_Completed::total            0                       # Table walker requests started/completed, data/inst
system.cpu00.itb.walker.walkRequestOrigin::total            0                       # Table walker requests started/completed, data/inst
system.cpu00.itb.inst_hits                          0                       # ITB inst hits
system.cpu00.itb.inst_misses                        0                       # ITB inst misses
system.cpu00.itb.read_hits                          0                       # DTB read hits
system.cpu00.itb.read_misses                        0                       # DTB read misses
system.cpu00.itb.write_hits                         0                       # DTB write hits
system.cpu00.itb.write_misses                       0                       # DTB write misses
system.cpu00.itb.flush_tlb                          0                       # Number of times complete TLB was flushed
system.cpu00.itb.flush_tlb_mva                      0                       # Number of times TLB was flushed by MVA
system.cpu00.itb.flush_tlb_mva_asid                 0                       # Number of times TLB was flushed by MVA & ASID
system.cpu00.itb.flush_tlb_asid                     0                       # Number of times TLB was flushed by ASID
system.cpu00.itb.flush_entries                      0                       # Number of entries that have been flushed from TLB
system.cpu00.itb.align_faults                       0                       # Number of TLB faults due to alignment restrictions
system.cpu00.itb.prefetch_faults                    0                       # Number of TLB faults due to prefetch
system.cpu00.itb.domain_faults                      0                       # Number of TLB faults due to domain restrictions
system.cpu00.itb.perms_faults                       0                       # Number of TLB faults due to permissions restrictions
system.cpu00.itb.read_accesses                      0                       # DTB read accesses
system.cpu00.itb.write_accesses                     0                       # DTB write accesses
system.cpu00.itb.inst_accesses                      0                       # ITB inst accesses
system.cpu00.itb.hits                               0                       # DTB hits
system.cpu00.itb.misses                             0                       # DTB misses
system.cpu00.itb.accesses                           0                       # DTB accesses
system.cpu00.workload.num_syscalls             109032                       # Number of system calls
system.cpu00.numCycles                       40026821                       # number of cpu cycles simulated
system.cpu00.numWorkItemsStarted                    0                       # number of work items this cpu started
system.cpu00.numWorkItemsCompleted                  0                       # number of work items this cpu completed
system.cpu00.fetch.icacheStallCycles             8311                       # Number of cycles fetch is stalled on an Icache miss
system.cpu00.fetch.Insts                    100011341                       # Number of instructions fetch has processed
system.cpu00.fetch.Branches                  20001911                       # Number of branches that fetch encountered
system.cpu00.fetch.predictedBranches         19999573                       # Number of branches that fetch has predicted taken
system.cpu00.fetch.Cycles                    40009986                       # Number of cycles fetch has run and was not squashing or blocked
system.cpu00.fetch.SquashCycles                  1698                       # Number of cycles fetch has spent squashing
system.cpu00.fetch.PendingTrapStallCycles          156                       # Number of stall cycles due to pending traps
system.cpu00.fetch.CacheLines                    2484                       # Number of cache lines fetched
system.cpu00.fetch.IcacheSquashes                 253                       # Number of outstanding Icache misses that were squashed
system.cpu00.fetch.rateDist::samples         40019302                       # Number of instructions fetched each cycle (Total)
system.cpu00.fetch.rateDist::mean            2.499216                       # Number of instructions fetched each cycle (Total)
system.cpu00.fetch.rateDist::stdev           0.502046                       # Number of instructions fetched each cycle (Total)
system.cpu00.fetch.rateDist::underflows             0      0.00%      0.00% # Number of instructions fetched each cycle (Total)
system.cpu00.fetch.rateDist::0                  13405      0.03%      0.03% # Number of instructions fetched each cycle (Total)
system.cpu00.fetch.rateDist::1                    815      0.00%      0.04% # Number of instructions fetched each cycle (Total)
system.cpu00.fetch.rateDist::2               19999194     49.97%     50.01% # Number of instructions fetched each cycle (Total)
system.cpu00.fetch.rateDist::3               20005888     49.99%    100.00% # Number of instructions fetched each cycle (Total)
system.cpu00.fetch.rateDist::overflows              0      0.00%    100.00% # Number of instructions fetched each cycle (Total)
system.cpu00.fetch.rateDist::min_value              0                       # Number of instructions fetched each cycle (Total)
system.cpu00.fetch.rateDist::max_value              3                       # Number of instructions fetched each cycle (Total)
system.cpu00.fetch.rateDist::total           40019302                       # Number of instructions fetched each cycle (Total)
system.cpu00.fetch.branchRate                0.499713                       # Number of branch fetches per cycle
system.cpu00.fetch.rate                      2.498608                       # Number of inst fetches per cycle
system.cpu00.decode.IdleCycles                   7845                       # Number of cycles decode is idle
system.cpu00.decode.BlockedCycles                6475                       # Number of cycles decode is blocked
system.cpu00.decode.RunCycles                40003631                       # Number of cycles decode is running
system.cpu00.decode.UnblockCycles                 683                       # Number of cycles decode is unblocking
system.cpu00.decode.SquashCycles                  668                       # Number of cycles decode is squashing
system.cpu00.decode.BranchResolved                447                       # Number of times decode resolved a branch
system.cpu00.decode.BranchMispred                 195                       # Number of times decode detected a branch misprediction
system.cpu00.decode.DecodedInsts            100013004                       # Number of instructions handled by decode
system.cpu00.decode.SquashedInsts                 437                       # Number of squashed instructions handled by decode
system.cpu00.rename.SquashCycles                  668                       # Number of cycles rename is squashing
system.cpu00.rename.IdleCycles                   8581                       # Number of cycles rename is idle
system.cpu00.rename.BlockCycles                   563                       # Number of cycles rename is blocking
system.cpu00.rename.serializeStallCycles         3473                       # count of cycles rename stalled for serializing inst
system.cpu00.rename.RunCycles                40003493                       # Number of cycles rename is running
system.cpu00.rename.UnblockCycles                2524                       # Number of cycles rename is unblocking
system.cpu00.rename.RenamedInsts            100011768                       # Number of instructions processed by rename
system.cpu00.rename.SQFullEvents                 2413                       # Number of times rename has blocked due to SQ full
system.cpu00.rename.RenamedOperands         100013387                       # Number of destination operands rename has renamed
system.cpu00.rename.RenameLookups           460058931                       # Number of register rename lookups that rename has made
system.cpu00.rename.int_rename_lookups      100017833                       # Number of integer rename lookups
system.cpu00.rename.fp_rename_lookups              16                       # Number of floating rename lookups
system.cpu00.rename.CommittedMaps           100004306                       # Number of HB maps that are committed
system.cpu00.rename.UndoneMaps                   9054                       # Number of HB maps that are undone due to squashing
system.cpu00.rename.serializingInsts               71                       # count of serializing insts renamed
system.cpu00.rename.tempSerializingInsts           70                       # count of temporary serializing insts renamed
system.cpu00.rename.skidInsts                    1143                       # count of insts added to the skid buffer
system.cpu00.memDep0.insertedLoads           39999230                       # Number of loads inserted to the mem dependence unit.
system.cpu00.memDep0.insertedStores          20002378                       # Number of stores inserted to the mem dependence unit.
system.cpu00.memDep0.conflictingLoads        19997938                       # Number of conflicting loads.
system.cpu00.memDep0.conflictingStores       19997896                       # Number of conflicting stores.
system.cpu00.iq.iqInstsAdded                100009533                       # Number of instructions added to the IQ (excludes non-spec)
system.cpu00.iq.iqNonSpecInstsAdded                91                       # Number of non-speculative instructions added to the IQ
system.cpu00.iq.iqInstsIssued               100007231                       # Number of instructions issued
system.cpu00.iq.iqSquashedInstsIssued             378                       # Number of squashed instructions issued
system.cpu00.iq.iqSquashedInstsExamined          6043                       # Number of squashed instructions iterated over during squash; mainly for profiling
system.cpu00.iq.iqSquashedOperandsExamined        14732                       # Number of squashed operands that are examined and possibly removed from graph
system.cpu00.iq.iqSquashedNonSpecRemoved            3                       # Number of squashed non-spec instructions that were removed
system.cpu00.iq.issued_per_cycle::samples     40019302                       # Number of insts issued each cycle
system.cpu00.iq.issued_per_cycle::mean       2.498975                       # Number of insts issued each cycle
system.cpu00.iq.issued_per_cycle::stdev      0.706520                       # Number of insts issued each cycle
system.cpu00.iq.issued_per_cycle::underflows            0      0.00%      0.00% # Number of insts issued each cycle
system.cpu00.iq.issued_per_cycle::0             14869      0.04%      0.04% # Number of insts issued each cycle
system.cpu00.iq.issued_per_cycle::1           4941220     12.35%     12.38% # Number of insts issued each cycle
system.cpu00.iq.issued_per_cycle::2          10123628     25.30%     37.68% # Number of insts issued each cycle
system.cpu00.iq.issued_per_cycle::3          24939585     62.32%    100.00% # Number of insts issued each cycle
system.cpu00.iq.issued_per_cycle::overflows            0      0.00%    100.00% # Number of insts issued each cycle
system.cpu00.iq.issued_per_cycle::min_value            0                       # Number of insts issued each cycle
system.cpu00.iq.issued_per_cycle::max_value            3                       # Number of insts issued each cycle
system.cpu00.iq.issued_per_cycle::total      40019302                       # Number of insts issued each cycle
system.cpu00.iq.fu_full::No_OpClass                 0                       # attempts to use FU when none available
system.cpu00.iq.fu_full::IntAlu                     0                       # attempts to use FU when none available
system.cpu00.iq.fu_full::IntMult                    0                       # attempts to use FU when none available
system.cpu00.iq.fu_full::IntDiv                     0                       # attempts to use FU when none available
system.cpu00.iq.fu_full::FloatAdd                   0                       # attempts to use FU when none available
system.cpu00.iq.fu_full::FloatCmp                   0                       # attempts to use FU when none available
system.cpu00.iq.fu_full::FloatCvt                   0                       # attempts to use FU when none available
system.cpu00.iq.fu_full::FloatMult                  0                       # attempts to use FU when none available
system.cpu00.iq.fu_full::FloatDiv                   0                       # attempts to use FU when none available
system.cpu00.iq.fu_full::FloatSqrt                  0                       # attempts to use FU when none available
system.cpu00.iq.fu_full::SimdAdd                    0                       # attempts to use FU when none available
system.cpu00.iq.fu_full::SimdAddAcc                 0                       # attempts to use FU when none available
system.cpu00.iq.fu_full::SimdAlu                    0                       # attempts to use FU when none available
system.cpu00.iq.fu_full::SimdCmp                    0                       # attempts to use FU when none available
system.cpu00.iq.fu_full::SimdCvt                    0                       # attempts to use FU when none available
system.cpu00.iq.fu_full::SimdMisc                   0                       # attempts to use FU when none available
system.cpu00.iq.fu_full::SimdMult                   0                       # attempts to use FU when none available
system.cpu00.iq.fu_full::SimdMultAcc                0                       # attempts to use FU when none available
system.cpu00.iq.fu_full::SimdShift                  0                       # attempts to use FU when none available
system.cpu00.iq.fu_full::SimdShiftAcc               0                       # attempts to use FU when none available
system.cpu00.iq.fu_full::SimdSqrt                   0                       # attempts to use FU when none available
system.cpu00.iq.fu_full::SimdFloatAdd               0                       # attempts to use FU when none available
system.cpu00.iq.fu_full::SimdFloatAlu               0                       # attempts to use FU when none available
system.cpu00.iq.fu_full::SimdFloatCmp               0                       # attempts to use FU when none available
system.cpu00.iq.fu_full::SimdFloatCvt               0                       # attempts to use FU when none available
system.cpu00.iq.fu_full::SimdFloatDiv               0                       # attempts to use FU when none available
system.cpu00.iq.fu_full::SimdFloatMisc              0                       # attempts to use FU when none available
system.cpu00.iq.fu_full::SimdFloatMult              0                       # attempts to use FU when none available
system.cpu00.iq.fu_full::SimdFloatMultAcc            0                       # attempts to use FU when none available
system.cpu00.iq.fu_full::SimdFloatSqrt              0                       # attempts to use FU when none available
system.cpu00.iq.fu_full::MemRead                    0                       # attempts to use FU when none available
system.cpu00.iq.fu_full::MemWrite                   0                       # attempts to use FU when none available
system.cpu00.iq.fu_full::IprAccess                  0                       # attempts to use FU when none available
system.cpu00.iq.fu_full::InstPrefetch               0                       # attempts to use FU when none available
system.cpu00.iq.FU_type_0::No_OpClass               0      0.00%      0.00% # Type of FU issued
system.cpu00.iq.FU_type_0::IntAlu            40006355     40.00%     40.00% # Type of FU issued
system.cpu00.iq.FU_type_0::IntMult                  8      0.00%     40.00% # Type of FU issued
system.cpu00.iq.FU_type_0::IntDiv                   0      0.00%     40.00% # Type of FU issued
system.cpu00.iq.FU_type_0::FloatAdd                 0      0.00%     40.00% # Type of FU issued
system.cpu00.iq.FU_type_0::FloatCmp                 0      0.00%     40.00% # Type of FU issued
system.cpu00.iq.FU_type_0::FloatCvt                 0      0.00%     40.00% # Type of FU issued
system.cpu00.iq.FU_type_0::FloatMult                0      0.00%     40.00% # Type of FU issued
system.cpu00.iq.FU_type_0::FloatDiv                 0      0.00%     40.00% # Type of FU issued
system.cpu00.iq.FU_type_0::FloatSqrt                0      0.00%     40.00% # Type of FU issued
system.cpu00.iq.FU_type_0::SimdAdd                  0      0.00%     40.00% # Type of FU issued
system.cpu00.iq.FU_type_0::SimdAddAcc               0      0.00%     40.00% # Type of FU issued
system.cpu00.iq.FU_type_0::SimdAlu                  0      0.00%     40.00% # Type of FU issued
system.cpu00.iq.FU_type_0::SimdCmp                  0      0.00%     40.00% # Type of FU issued
system.cpu00.iq.FU_type_0::SimdCvt                  0      0.00%     40.00% # Type of FU issued
system.cpu00.iq.FU_type_0::SimdMisc                 0      0.00%     40.00% # Type of FU issued
system.cpu00.iq.FU_type_0::SimdMult                 0      0.00%     40.00% # Type of FU issued
system.cpu00.iq.FU_type_0::SimdMultAcc              0      0.00%     40.00% # Type of FU issued
system.cpu00.iq.FU_type_0::SimdShift                0      0.00%     40.00% # Type of FU issued
system.cpu00.iq.FU_type_0::SimdShiftAcc             0      0.00%     40.00% # Type of FU issued
system.cpu00.iq.FU_type_0::SimdSqrt                 0      0.00%     40.00% # Type of FU issued
system.cpu00.iq.FU_type_0::SimdFloatAdd             0      0.00%     40.00% # Type of FU issued
system.cpu00.iq.FU_type_0::SimdFloatAlu             0      0.00%     40.00% # Type of FU issued
system.cpu00.iq.FU_type_0::SimdFloatCmp             0      0.00%     40.00% # Type of FU issued
system.cpu00.iq.FU_type_0::SimdFloatCvt             0      0.00%     40.00% # Type of FU issued
system.cpu00.iq.FU_type_0::SimdFloatDiv             0      0.00%     40.00% # Type of FU issued
system.cpu00.iq.FU_type_0::SimdFloatMisc            3      0.00%     40.00% # Type of FU issued
system.cpu00.iq.FU_type_0::SimdFloatMult            0      0.00%     40.00% # Type of FU issued
system.cpu00.iq.FU_type_0::SimdFloatMultAcc            0      0.00%     40.00% # Type of FU issued
system.cpu00.iq.FU_type_0::SimdFloatSqrt            0      0.00%     40.00% # Type of FU issued
system.cpu00.iq.FU_type_0::MemRead           39998805     40.00%     80.00% # Type of FU issued
system.cpu00.iq.FU_type_0::MemWrite          20002060     20.00%    100.00% # Type of FU issued
system.cpu00.iq.FU_type_0::IprAccess                0      0.00%    100.00% # Type of FU issued
system.cpu00.iq.FU_type_0::InstPrefetch             0      0.00%    100.00% # Type of FU issued
system.cpu00.iq.FU_type_0::total            100007231                       # Type of FU issued
system.cpu00.iq.rate                         2.498505                       # Inst issue rate
system.cpu00.iq.fu_busy_cnt                         0                       # FU busy when requested
system.cpu00.iq.fu_busy_rate                        0                       # FU busy rate (busy events/executed inst)
system.cpu00.iq.int_inst_queue_reads        240034108                       # Number of integer instruction queue reads
system.cpu00.iq.int_inst_queue_writes       100015742                       # Number of integer instruction queue writes
system.cpu00.iq.int_inst_queue_wakeup_accesses    100006033                       # Number of integer instruction queue wakeup accesses
system.cpu00.iq.fp_inst_queue_reads                32                       # Number of floating instruction queue reads
system.cpu00.iq.fp_inst_queue_writes               16                       # Number of floating instruction queue writes
system.cpu00.iq.fp_inst_queue_wakeup_accesses           16                       # Number of floating instruction queue wakeup accesses
system.cpu00.iq.int_alu_accesses            100007215                       # Number of integer alu accesses
system.cpu00.iq.fp_alu_accesses                    16                       # Number of floating point alu accesses
system.cpu00.iew.lsq.thread0.forwLoads       19998132                       # Number of loads that had data forwarded from stores
system.cpu00.iew.lsq.thread0.invAddrLoads            0                       # Number of loads ignored due to an invalid address
system.cpu00.iew.lsq.thread0.squashedLoads         1606                       # Number of loads squashed
system.cpu00.iew.lsq.thread0.ignoredResponses            1                       # Number of memory responses ignored because the instruction is squashed
system.cpu00.iew.lsq.thread0.memOrderViolation           91                       # Number of memory ordering violations
system.cpu00.iew.lsq.thread0.squashedStores          628                       # Number of stores squashed
system.cpu00.iew.lsq.thread0.invAddrSwpfs            0                       # Number of software prefetches ignored due to an invalid address
system.cpu00.iew.lsq.thread0.blockedLoads            0                       # Number of blocked loads due to partial load-store forwarding
system.cpu00.iew.lsq.thread0.rescheduledLoads            4                       # Number of loads that were rescheduled
system.cpu00.iew.lsq.thread0.cacheBlocked            0                       # Number of times an access to memory failed due to the cache being blocked
system.cpu00.iew.iewIdleCycles                      0                       # Number of cycles IEW is idle
system.cpu00.iew.iewSquashCycles                  668                       # Number of cycles IEW is squashing
system.cpu00.iew.iewBlockCycles                   457                       # Number of cycles IEW is blocking
system.cpu00.iew.iewUnblockCycles                 109                       # Number of cycles IEW is unblocking
system.cpu00.iew.iewDispatchedInsts         100009642                       # Number of instructions dispatched to IQ
system.cpu00.iew.iewDispSquashedInsts             426                       # Number of squashed instructions skipped by dispatch
system.cpu00.iew.iewDispLoadInsts            39999230                       # Number of dispatched load instructions
system.cpu00.iew.iewDispStoreInsts           20002378                       # Number of dispatched store instructions
system.cpu00.iew.iewDispNonSpecInsts               67                       # Number of dispatched non-speculative instructions
system.cpu00.iew.iewIQFullEvents                    2                       # Number of times the IQ has become full, causing a stall
system.cpu00.iew.iewLSQFullEvents                   0                       # Number of times the LSQ has become full, causing a stall
system.cpu00.iew.memOrderViolationEvents           91                       # Number of memory order violations
system.cpu00.iew.predictedTakenIncorrect           73                       # Number of branches that were predicted taken incorrectly
system.cpu00.iew.predictedNotTakenIncorrect          489                       # Number of branches that were predicted not taken incorrectly
system.cpu00.iew.branchMispredicts                562                       # Number of branch mispredicts detected at execute
system.cpu00.iew.iewExecutedInsts           100006491                       # Number of executed instructions
system.cpu00.iew.iewExecLoadInsts            39998609                       # Number of load instructions executed
system.cpu00.iew.iewExecSquashedInsts             738                       # Number of squashed instructions skipped in execute
system.cpu00.iew.exec_swp                           0                       # number of swp insts executed
system.cpu00.iew.exec_nop                          18                       # number of nop insts executed
system.cpu00.iew.exec_refs                   60000525                       # number of memory reference insts executed
system.cpu00.iew.exec_branches               20000153                       # Number of branches executed
system.cpu00.iew.exec_stores                 20001916                       # Number of stores executed
system.cpu00.iew.exec_rate                   2.498487                       # Inst execution rate
system.cpu00.iew.wb_sent                    100006178                       # cumulative count of insts sent to commit
system.cpu00.iew.wb_count                   100006049                       # cumulative count of insts written-back
system.cpu00.iew.wb_producers                60001011                       # num instructions producing a value
system.cpu00.iew.wb_consumers                60011539                       # num instructions consuming a value
system.cpu00.iew.wb_penalized                       0                       # number of instrctions required to write to 'other' IQ
system.cpu00.iew.wb_rate                     2.498476                       # insts written-back per cycle
system.cpu00.iew.wb_fanout                   0.999825                       # average fanout of values written-back
system.cpu00.iew.wb_penalized_rate                  0                       # fraction of instructions written-back that wrote to 'other' IQ
system.cpu00.commit.commitSquashedInsts          6061                       # The number of squashed insts skipped by commit
system.cpu00.commit.commitNonSpecStalls            88                       # The number of times commit has been forced to stall to communicate backwards
system.cpu00.commit.branchMispredicts             537                       # The number of times a branch was mispredicted
system.cpu00.commit.committed_per_cycle::samples     40018196                       # Number of insts commited each cycle
system.cpu00.commit.committed_per_cycle::mean     2.498952                       # Number of insts commited each cycle
system.cpu00.commit.committed_per_cycle::stdev     1.580624                       # Number of insts commited each cycle
system.cpu00.commit.committed_per_cycle::underflows            0      0.00%      0.00% # Number of insts commited each cycle
system.cpu00.commit.committed_per_cycle::0        16022      0.04%      0.04% # Number of insts commited each cycle
system.cpu00.commit.committed_per_cycle::1     20000532     49.98%     50.02% # Number of insts commited each cycle
system.cpu00.commit.committed_per_cycle::2         1300      0.00%     50.02% # Number of insts commited each cycle
system.cpu00.commit.committed_per_cycle::3      4939918     12.34%     62.37% # Number of insts commited each cycle
system.cpu00.commit.committed_per_cycle::4     10122002     25.29%     87.66% # Number of insts commited each cycle
system.cpu00.commit.committed_per_cycle::5      4938144     12.34%    100.00% # Number of insts commited each cycle
system.cpu00.commit.committed_per_cycle::6           85      0.00%    100.00% # Number of insts commited each cycle
system.cpu00.commit.committed_per_cycle::7          107      0.00%    100.00% # Number of insts commited each cycle
system.cpu00.commit.committed_per_cycle::8           86      0.00%    100.00% # Number of insts commited each cycle
system.cpu00.commit.committed_per_cycle::overflows            0      0.00%    100.00% # Number of insts commited each cycle
system.cpu00.commit.committed_per_cycle::min_value            0                       # Number of insts commited each cycle
system.cpu00.commit.committed_per_cycle::max_value            8                       # Number of insts commited each cycle
system.cpu00.commit.committed_per_cycle::total     40018196                       # Number of insts commited each cycle
system.cpu00.commit.committedInsts          100000003                       # Number of instructions committed
system.cpu00.commit.committedOps            100003561                       # Number of ops (including micro ops) committed
system.cpu00.commit.swp_count                       0                       # Number of s/w prefetches committed
system.cpu00.commit.refs                     59999362                       # Number of memory references committed
system.cpu00.commit.loads                    39997616                       # Number of loads committed
system.cpu00.commit.membars                        24                       # Number of memory barriers committed
system.cpu00.commit.branches                 19999709                       # Number of branches committed
system.cpu00.commit.fp_insts                       16                       # Number of committed floating point instructions.
system.cpu00.commit.int_insts                80004283                       # Number of committed integer instructions.
system.cpu00.commit.function_calls                176                       # Number of function calls committed.
system.cpu00.commit.op_class_0::No_OpClass            0      0.00%      0.00% # Class of committed instruction
system.cpu00.commit.op_class_0::IntAlu       40004188     40.00%     40.00% # Class of committed instruction
system.cpu00.commit.op_class_0::IntMult             8      0.00%     40.00% # Class of committed instruction
system.cpu00.commit.op_class_0::IntDiv              0      0.00%     40.00% # Class of committed instruction
system.cpu00.commit.op_class_0::FloatAdd            0      0.00%     40.00% # Class of committed instruction
system.cpu00.commit.op_class_0::FloatCmp            0      0.00%     40.00% # Class of committed instruction
system.cpu00.commit.op_class_0::FloatCvt            0      0.00%     40.00% # Class of committed instruction
system.cpu00.commit.op_class_0::FloatMult            0      0.00%     40.00% # Class of committed instruction
system.cpu00.commit.op_class_0::FloatDiv            0      0.00%     40.00% # Class of committed instruction
system.cpu00.commit.op_class_0::FloatSqrt            0      0.00%     40.00% # Class of committed instruction
system.cpu00.commit.op_class_0::SimdAdd             0      0.00%     40.00% # Class of committed instruction
system.cpu00.commit.op_class_0::SimdAddAcc            0      0.00%     40.00% # Class of committed instruction
system.cpu00.commit.op_class_0::SimdAlu             0      0.00%     40.00% # Class of committed instruction
system.cpu00.commit.op_class_0::SimdCmp             0      0.00%     40.00% # Class of committed instruction
system.cpu00.commit.op_class_0::SimdCvt             0      0.00%     40.00% # Class of committed instruction
system.cpu00.commit.op_class_0::SimdMisc            0      0.00%     40.00% # Class of committed instruction
system.cpu00.commit.op_class_0::SimdMult            0      0.00%     40.00% # Class of committed instruction
system.cpu00.commit.op_class_0::SimdMultAcc            0      0.00%     40.00% # Class of committed instruction
system.cpu00.commit.op_class_0::SimdShift            0      0.00%     40.00% # Class of committed instruction
system.cpu00.commit.op_class_0::SimdShiftAcc            0      0.00%     40.00% # Class of committed instruction
system.cpu00.commit.op_class_0::SimdSqrt            0      0.00%     40.00% # Class of committed instruction
system.cpu00.commit.op_class_0::SimdFloatAdd            0      0.00%     40.00% # Class of committed instruction
system.cpu00.commit.op_class_0::SimdFloatAlu            0      0.00%     40.00% # Class of committed instruction
system.cpu00.commit.op_class_0::SimdFloatCmp            0      0.00%     40.00% # Class of committed instruction
system.cpu00.commit.op_class_0::SimdFloatCvt            0      0.00%     40.00% # Class of committed instruction
system.cpu00.commit.op_class_0::SimdFloatDiv            0      0.00%     40.00% # Class of committed instruction
system.cpu00.commit.op_class_0::SimdFloatMisc            3      0.00%     40.00% # Class of committed instruction
system.cpu00.commit.op_class_0::SimdFloatMult            0      0.00%     40.00% # Class of committed instruction
system.cpu00.commit.op_class_0::SimdFloatMultAcc            0      0.00%     40.00% # Class of committed instruction
system.cpu00.commit.op_class_0::SimdFloatSqrt            0      0.00%     40.00% # Class of committed instruction
system.cpu00.commit.op_class_0::MemRead      39997616     40.00%     80.00% # Class of committed instruction
system.cpu00.commit.op_class_0::MemWrite     20001746     20.00%    100.00% # Class of committed instruction
system.cpu00.commit.op_class_0::IprAccess            0      0.00%    100.00% # Class of committed instruction
system.cpu00.commit.op_class_0::InstPrefetch            0      0.00%    100.00% # Class of committed instruction
system.cpu00.commit.op_class_0::total       100003561                       # Class of committed instruction
system.cpu00.commit.bw_lim_events                  86                       # number cycles where commit BW limit reached
system.cpu00.rob.rob_reads                  140027211                       # The number of ROB reads
system.cpu00.rob.rob_writes                 200020375                       # The number of ROB writes
system.cpu00.timesIdled                           223                       # Number of times that the entire CPU went into an idle state and unscheduled itself
system.cpu00.idleCycles                          7519                       # Total number of cycles that the CPU has spent unscheduled due to idling
system.cpu00.committedInsts                 100000003                       # Number of Instructions Simulated
system.cpu00.committedOps                   100003561                       # Number of Ops (including micro ops) Simulated
system.cpu00.cpi                             0.400268                       # CPI: Cycles Per Instruction
system.cpu00.cpi_total                       0.400268                       # CPI: Total CPI of All Threads
system.cpu00.ipc                             2.498325                       # IPC: Instructions Per Cycle
system.cpu00.ipc_total                       2.498325                       # IPC: Total IPC of All Threads
system.cpu00.int_regfile_reads              100009895                       # number of integer regfile reads
system.cpu00.int_regfile_writes              40005311                       # number of integer regfile writes
system.cpu00.fp_regfile_reads                    2576                       # number of floating regfile reads
system.cpu00.cc_regfile_reads               420014065                       # number of cc regfile reads
system.cpu00.cc_regfile_writes               60001717                       # number of cc regfile writes
system.cpu00.misc_regfile_reads              60908403                       # number of misc regfile reads
system.cpu00.misc_regfile_writes                   50                       # number of misc regfile writes
system.cpu00.dcache.tags.replacements              42                       # number of replacements
system.cpu00.dcache.tags.tagsinuse         122.511081                       # Cycle average of tags in use
system.cpu00.dcache.tags.total_refs          39998844                       # Total number of references to valid blocks.
system.cpu00.dcache.tags.sampled_refs             162                       # Sample count of references to valid blocks.
system.cpu00.dcache.tags.avg_refs        246906.444444                       # Average number of references to valid blocks.
system.cpu00.dcache.tags.warmup_cycle               0                       # Cycle when the warmup percentage was hit.
system.cpu00.dcache.tags.occ_blocks::cpu00.data   122.511081                       # Average occupied blocks per requestor
system.cpu00.dcache.tags.occ_percent::cpu00.data     0.239279                       # Average percentage of cache occupancy
system.cpu00.dcache.tags.occ_percent::total     0.239279                       # Average percentage of cache occupancy
system.cpu00.dcache.tags.occ_task_id_blocks::1024          120                       # Occupied blocks per task id
system.cpu00.dcache.tags.age_task_id_blocks_1024::4          120                       # Occupied blocks per task id
system.cpu00.dcache.tags.occ_task_id_percent::1024     0.234375                       # Percentage of cache occupancy per task id
system.cpu00.dcache.tags.tag_accesses        80004339                       # Number of tag accesses
system.cpu00.dcache.tags.data_accesses       80004339                       # Number of data accesses
system.cpu00.dcache.ReadReq_hits::cpu00.data     20000120                       # number of ReadReq hits
system.cpu00.dcache.ReadReq_hits::total      20000120                       # number of ReadReq hits
system.cpu00.dcache.WriteReq_hits::cpu00.data     19999179                       # number of WriteReq hits
system.cpu00.dcache.WriteReq_hits::total     19999179                       # number of WriteReq hits
system.cpu00.dcache.LoadLockedReq_hits::cpu00.data           20                       # number of LoadLockedReq hits
system.cpu00.dcache.LoadLockedReq_hits::total           20                       # number of LoadLockedReq hits
system.cpu00.dcache.StoreCondReq_hits::cpu00.data           23                       # number of StoreCondReq hits
system.cpu00.dcache.StoreCondReq_hits::total           23                       # number of StoreCondReq hits
system.cpu00.dcache.demand_hits::cpu00.data     39999299                       # number of demand (read+write) hits
system.cpu00.dcache.demand_hits::total       39999299                       # number of demand (read+write) hits
system.cpu00.dcache.overall_hits::cpu00.data     39999299                       # number of overall hits
system.cpu00.dcache.overall_hits::total      39999299                       # number of overall hits
system.cpu00.dcache.ReadReq_misses::cpu00.data          163                       # number of ReadReq misses
system.cpu00.dcache.ReadReq_misses::total          163                       # number of ReadReq misses
system.cpu00.dcache.WriteReq_misses::cpu00.data         2499                       # number of WriteReq misses
system.cpu00.dcache.WriteReq_misses::total         2499                       # number of WriteReq misses
system.cpu00.dcache.LoadLockedReq_misses::cpu00.data            3                       # number of LoadLockedReq misses
system.cpu00.dcache.LoadLockedReq_misses::total            3                       # number of LoadLockedReq misses
system.cpu00.dcache.demand_misses::cpu00.data         2662                       # number of demand (read+write) misses
system.cpu00.dcache.demand_misses::total         2662                       # number of demand (read+write) misses
system.cpu00.dcache.overall_misses::cpu00.data         2662                       # number of overall misses
system.cpu00.dcache.overall_misses::total         2662                       # number of overall misses
system.cpu00.dcache.ReadReq_miss_latency::cpu00.data      7894490                       # number of ReadReq miss cycles
system.cpu00.dcache.ReadReq_miss_latency::total      7894490                       # number of ReadReq miss cycles
system.cpu00.dcache.WriteReq_miss_latency::cpu00.data    123570500                       # number of WriteReq miss cycles
system.cpu00.dcache.WriteReq_miss_latency::total    123570500                       # number of WriteReq miss cycles
system.cpu00.dcache.LoadLockedReq_miss_latency::cpu00.data       133500                       # number of LoadLockedReq miss cycles
system.cpu00.dcache.LoadLockedReq_miss_latency::total       133500                       # number of LoadLockedReq miss cycles
system.cpu00.dcache.demand_miss_latency::cpu00.data    131464990                       # number of demand (read+write) miss cycles
system.cpu00.dcache.demand_miss_latency::total    131464990                       # number of demand (read+write) miss cycles
system.cpu00.dcache.overall_miss_latency::cpu00.data    131464990                       # number of overall miss cycles
system.cpu00.dcache.overall_miss_latency::total    131464990                       # number of overall miss cycles
system.cpu00.dcache.ReadReq_accesses::cpu00.data     20000283                       # number of ReadReq accesses(hits+misses)
system.cpu00.dcache.ReadReq_accesses::total     20000283                       # number of ReadReq accesses(hits+misses)
system.cpu00.dcache.WriteReq_accesses::cpu00.data     20001678                       # number of WriteReq accesses(hits+misses)
system.cpu00.dcache.WriteReq_accesses::total     20001678                       # number of WriteReq accesses(hits+misses)
system.cpu00.dcache.LoadLockedReq_accesses::cpu00.data           23                       # number of LoadLockedReq accesses(hits+misses)
system.cpu00.dcache.LoadLockedReq_accesses::total           23                       # number of LoadLockedReq accesses(hits+misses)
system.cpu00.dcache.StoreCondReq_accesses::cpu00.data           23                       # number of StoreCondReq accesses(hits+misses)
system.cpu00.dcache.StoreCondReq_accesses::total           23                       # number of StoreCondReq accesses(hits+misses)
system.cpu00.dcache.demand_accesses::cpu00.data     40001961                       # number of demand (read+write) accesses
system.cpu00.dcache.demand_accesses::total     40001961                       # number of demand (read+write) accesses
system.cpu00.dcache.overall_accesses::cpu00.data     40001961                       # number of overall (read+write) accesses
system.cpu00.dcache.overall_accesses::total     40001961                       # number of overall (read+write) accesses
system.cpu00.dcache.ReadReq_miss_rate::cpu00.data     0.000008                       # miss rate for ReadReq accesses
system.cpu00.dcache.ReadReq_miss_rate::total     0.000008                       # miss rate for ReadReq accesses
system.cpu00.dcache.WriteReq_miss_rate::cpu00.data     0.000125                       # miss rate for WriteReq accesses
system.cpu00.dcache.WriteReq_miss_rate::total     0.000125                       # miss rate for WriteReq accesses
system.cpu00.dcache.LoadLockedReq_miss_rate::cpu00.data     0.130435                       # miss rate for LoadLockedReq accesses
system.cpu00.dcache.LoadLockedReq_miss_rate::total     0.130435                       # miss rate for LoadLockedReq accesses
system.cpu00.dcache.demand_miss_rate::cpu00.data     0.000067                       # miss rate for demand accesses
system.cpu00.dcache.demand_miss_rate::total     0.000067                       # miss rate for demand accesses
system.cpu00.dcache.overall_miss_rate::cpu00.data     0.000067                       # miss rate for overall accesses
system.cpu00.dcache.overall_miss_rate::total     0.000067                       # miss rate for overall accesses
[...]
system.tol2bus.pkt_count_system.cpu10.dcache.mem_side::system.l2.cpu_side       295855                       # Packet count per connected master and slave (bytes)
system.tol2bus.pkt_count_system.cpu11.icache.mem_side::system.l2.cpu_side         4348                       # Packet count per connected master and slave (bytes)
system.tol2bus.pkt_count_system.cpu11.dcache.mem_side::system.l2.cpu_side       265065                       # Packet count per connected master and slave (bytes)
system.tol2bus.pkt_count_system.cpu12.icache.mem_side::system.l2.cpu_side         4354                       # Packet count per connected master and slave (bytes)
system.tol2bus.pkt_count_system.cpu12.dcache.mem_side::system.l2.cpu_side       302766                       # Packet count per connected master and slave (bytes)
system.tol2bus.pkt_count_system.cpu13.icache.mem_side::system.l2.cpu_side         3434                       # Packet count per connected master and slave (bytes)
system.tol2bus.pkt_count_system.cpu13.dcache.mem_side::system.l2.cpu_side       259440                       # Packet count per connected master and slave (bytes)
system.tol2bus.pkt_count_system.cpu14.icache.mem_side::system.l2.cpu_side         3552                       # Packet count per connected master and slave (bytes)
system.tol2bus.pkt_count_system.cpu14.dcache.mem_side::system.l2.cpu_side       265282                       # Packet count per connected master and slave (bytes)
system.tol2bus.pkt_count_system.cpu15.icache.mem_side::system.l2.cpu_side         3396                       # Packet count per connected master and slave (bytes)
system.tol2bus.pkt_count_system.cpu15.dcache.mem_side::system.l2.cpu_side       251256                       # Packet count per connected master and slave (bytes)
system.tol2bus.pkt_count_system.cpu16.icache.mem_side::system.l2.cpu_side         4378                       # Packet count per connected master and slave (bytes)
system.tol2bus.pkt_count_system.cpu16.dcache.mem_side::system.l2.cpu_side       288997                       # Packet count per connected master and slave (bytes)
system.tol2bus.pkt_count::total               4281262                       # Packet count per connected master and slave (bytes)
system.tol2bus.pkt_size_system.cpu00.icache.mem_side::system.l2.cpu_side        22080                       # Cumulative packet size per connected master and slave (bytes)
system.tol2bus.pkt_size_system.cpu00.dcache.mem_side::system.l2.cpu_side        22400                       # Cumulative packet size per connected master and slave (bytes)
system.tol2bus.pkt_size_system.cpu01.icache.mem_side::system.l2.cpu_side       115200                       # Cumulative packet size per connected master and slave (bytes)
system.tol2bus.pkt_size_system.cpu01.dcache.mem_side::system.l2.cpu_side      1165760                       # Cumulative packet size per connected master and slave (bytes)
system.tol2bus.pkt_size_system.cpu02.icache.mem_side::system.l2.cpu_side       112512                       # Cumulative packet size per connected master and slave (bytes)
system.tol2bus.pkt_size_system.cpu02.dcache.mem_side::system.l2.cpu_side       948224                       # Cumulative packet size per connected master and slave (bytes)
system.tol2bus.pkt_size_system.cpu03.icache.mem_side::system.l2.cpu_side       100672                       # Cumulative packet size per connected master and slave (bytes)
system.tol2bus.pkt_size_system.cpu03.dcache.mem_side::system.l2.cpu_side      1036672                       # Cumulative packet size per connected master and slave (bytes)
system.tol2bus.pkt_size_system.cpu04.icache.mem_side::system.l2.cpu_side       107456                       # Cumulative packet size per connected master and slave (bytes)
system.tol2bus.pkt_size_system.cpu04.dcache.mem_side::system.l2.cpu_side      1120384                       # Cumulative packet size per connected master and slave (bytes)
system.tol2bus.pkt_size_system.cpu05.icache.mem_side::system.l2.cpu_side       134720                       # Cumulative packet size per connected master and slave (bytes)
system.tol2bus.pkt_size_system.cpu05.dcache.mem_side::system.l2.cpu_side      1041984                       # Cumulative packet size per connected master and slave (bytes)
system.tol2bus.pkt_size_system.cpu06.icache.mem_side::system.l2.cpu_side       144384                       # Cumulative packet size per connected master and slave (bytes)
system.tol2bus.pkt_size_system.cpu06.dcache.mem_side::system.l2.cpu_side      1053568                       # Cumulative packet size per connected master and slave (bytes)
system.tol2bus.pkt_size_system.cpu07.icache.mem_side::system.l2.cpu_side       133184                       # Cumulative packet size per connected master and slave (bytes)
system.tol2bus.pkt_size_system.cpu07.dcache.mem_side::system.l2.cpu_side      1116224                       # Cumulative packet size per connected master and slave (bytes)
system.tol2bus.pkt_size_system.cpu08.icache.mem_side::system.l2.cpu_side       138624                       # Cumulative packet size per connected master and slave (bytes)
system.tol2bus.pkt_size_system.cpu08.dcache.mem_side::system.l2.cpu_side      1049600                       # Cumulative packet size per connected master and slave (bytes)
system.tol2bus.pkt_size_system.cpu09.icache.mem_side::system.l2.cpu_side       136448                       # Cumulative packet size per connected master and slave (bytes)
system.tol2bus.pkt_size_system.cpu09.dcache.mem_side::system.l2.cpu_side      1140928                       # Cumulative packet size per connected master and slave (bytes)
system.tol2bus.pkt_size_system.cpu10.icache.mem_side::system.l2.cpu_side       136576                       # Cumulative packet size per connected master and slave (bytes)
system.tol2bus.pkt_size_system.cpu10.dcache.mem_side::system.l2.cpu_side      1149952                       # Cumulative packet size per connected master and slave (bytes)
system.tol2bus.pkt_size_system.cpu11.icache.mem_side::system.l2.cpu_side       139136                       # Cumulative packet size per connected master and slave (bytes)
system.tol2bus.pkt_size_system.cpu11.dcache.mem_side::system.l2.cpu_side      1144512                       # Cumulative packet size per connected master and slave (bytes)
system.tol2bus.pkt_size_system.cpu12.icache.mem_side::system.l2.cpu_side       139328                       # Cumulative packet size per connected master and slave (bytes)
system.tol2bus.pkt_size_system.cpu12.dcache.mem_side::system.l2.cpu_side      1209408                       # Cumulative packet size per connected master and slave (bytes)
system.tol2bus.pkt_size_system.cpu13.icache.mem_side::system.l2.cpu_side       109888                       # Cumulative packet size per connected master and slave (bytes)
system.tol2bus.pkt_size_system.cpu13.dcache.mem_side::system.l2.cpu_side       993344                       # Cumulative packet size per connected master and slave (bytes)
system.tol2bus.pkt_size_system.cpu14.icache.mem_side::system.l2.cpu_side       113600                       # Cumulative packet size per connected master and slave (bytes)
system.tol2bus.pkt_size_system.cpu14.dcache.mem_side::system.l2.cpu_side      1083584                       # Cumulative packet size per connected master and slave (bytes)
system.tol2bus.pkt_size_system.cpu15.icache.mem_side::system.l2.cpu_side       108672                       # Cumulative packet size per connected master and slave (bytes)
system.tol2bus.pkt_size_system.cpu15.dcache.mem_side::system.l2.cpu_side      1060864                       # Cumulative packet size per connected master and slave (bytes)
system.tol2bus.pkt_size_system.cpu16.icache.mem_side::system.l2.cpu_side       140096                       # Cumulative packet size per connected master and slave (bytes)
system.tol2bus.pkt_size_system.cpu16.dcache.mem_side::system.l2.cpu_side      1031744                       # Cumulative packet size per connected master and slave (bytes)
system.tol2bus.pkt_size::total               19401728                       # Cumulative packet size per connected master and slave (bytes)
system.tol2bus.snoops                         3257300                       # Total snoops (count)
system.tol2bus.snoop_fanout::samples          3776433                       # Request fanout histogram
system.tol2bus.snoop_fanout::mean                  33                       # Request fanout histogram
system.tol2bus.snoop_fanout::stdev                  0                       # Request fanout histogram
system.tol2bus.snoop_fanout::underflows             0      0.00%      0.00% # Request fanout histogram
system.tol2bus.snoop_fanout::0                      0      0.00%      0.00% # Request fanout histogram
system.tol2bus.snoop_fanout::1                      0      0.00%      0.00% # Request fanout histogram
system.tol2bus.snoop_fanout::2                      0      0.00%      0.00% # Request fanout histogram
system.tol2bus.snoop_fanout::3                      0      0.00%      0.00% # Request fanout histogram
system.tol2bus.snoop_fanout::4                      0      0.00%      0.00% # Request fanout histogram
system.tol2bus.snoop_fanout::5                      0      0.00%      0.00% # Request fanout histogram
system.tol2bus.snoop_fanout::6                      0      0.00%      0.00% # Request fanout histogram
system.tol2bus.snoop_fanout::7                      0      0.00%      0.00% # Request fanout histogram
system.tol2bus.snoop_fanout::8                      0      0.00%      0.00% # Request fanout histogram
system.tol2bus.snoop_fanout::9                      0      0.00%      0.00% # Request fanout histogram
system.tol2bus.snoop_fanout::10                     0      0.00%      0.00% # Request fanout histogram
system.tol2bus.snoop_fanout::11                     0      0.00%      0.00% # Request fanout histogram
system.tol2bus.snoop_fanout::12                     0      0.00%      0.00% # Request fanout histogram
system.tol2bus.snoop_fanout::13                     0      0.00%      0.00% # Request fanout histogram
system.tol2bus.snoop_fanout::14                     0      0.00%      0.00% # Request fanout histogram
system.tol2bus.snoop_fanout::15                     0      0.00%      0.00% # Request fanout histogram
system.tol2bus.snoop_fanout::16                     0      0.00%      0.00% # Request fanout histogram
system.tol2bus.snoop_fanout::17                     0      0.00%      0.00% # Request fanout histogram
system.tol2bus.snoop_fanout::18                     0      0.00%      0.00% # Request fanout histogram
system.tol2bus.snoop_fanout::19                     0      0.00%      0.00% # Request fanout histogram
system.tol2bus.snoop_fanout::20                     0      0.00%      0.00% # Request fanout histogram
system.tol2bus.snoop_fanout::21                     0      0.00%      0.00% # Request fanout histogram
system.tol2bus.snoop_fanout::22                     0      0.00%      0.00% # Request fanout histogram
system.tol2bus.snoop_fanout::23                     0      0.00%      0.00% # Request fanout histogram
system.tol2bus.snoop_fanout::24                     0      0.00%      0.00% # Request fanout histogram
system.tol2bus.snoop_fanout::25                     0      0.00%      0.00% # Request fanout histogram
system.tol2bus.snoop_fanout::26                     0      0.00%      0.00% # Request fanout histogram
system.tol2bus.snoop_fanout::27                     0      0.00%      0.00% # Request fanout histogram
system.tol2bus.snoop_fanout::28                     0      0.00%      0.00% # Request fanout histogram
system.tol2bus.snoop_fanout::29                     0      0.00%      0.00% # Request fanout histogram
system.tol2bus.snoop_fanout::30                     0      0.00%      0.00% # Request fanout histogram
system.tol2bus.snoop_fanout::31                     0      0.00%      0.00% # Request fanout histogram
system.tol2bus.snoop_fanout::32                     0      0.00%      0.00% # Request fanout histogram
system.tol2bus.snoop_fanout::33               3776433    100.00%    100.00% # Request fanout histogram
system.tol2bus.snoop_fanout::34                     0      0.00%    100.00% # Request fanout histogram
system.tol2bus.snoop_fanout::overflows              0      0.00%    100.00% # Request fanout histogram
system.tol2bus.snoop_fanout::min_value             33                       # Request fanout histogram
system.tol2bus.snoop_fanout::max_value             33                       # Request fanout histogram
system.tol2bus.snoop_fanout::total            3776433                       # Request fanout histogram
system.tol2bus.reqLayer0.occupancy         1911226145                       # Layer occupancy (ticks)
system.tol2bus.reqLayer0.utilization              4.8                       # Layer utilization (%)
system.tol2bus.respLayer0.occupancy            518498                       # Layer occupancy (ticks)
system.tol2bus.respLayer0.utilization             0.0                       # Layer utilization (%)
system.tol2bus.respLayer1.occupancy            490494                       # Layer occupancy (ticks)
system.tol2bus.respLayer1.utilization             0.0                       # Layer utilization (%)
system.tol2bus.respLayer4.occupancy           2700497                       # Layer occupancy (ticks)
system.tol2bus.respLayer4.utilization             0.0                       # Layer utilization (%)
system.tol2bus.respLayer5.occupancy         273146620                       # Layer occupancy (ticks)
system.tol2bus.respLayer5.utilization             0.7                       # Layer utilization (%)
system.tol2bus.respLayer8.occupancy           2681323                       # Layer occupancy (ticks)
system.tol2bus.respLayer8.utilization             0.0                       # Layer utilization (%)
system.tol2bus.respLayer9.occupancy         293618075                       # Layer occupancy (ticks)
system.tol2bus.respLayer9.utilization             0.7                       # Layer utilization (%)
system.tol2bus.respLayer12.occupancy          2400840                       # Layer occupancy (ticks)
system.tol2bus.respLayer12.utilization            0.0                       # Layer utilization (%)
system.tol2bus.respLayer13.occupancy        348122682                       # Layer occupancy (ticks)
system.tol2bus.respLayer13.utilization            0.9                       # Layer utilization (%)
system.tol2bus.respLayer16.occupancy          2561817                       # Layer occupancy (ticks)
system.tol2bus.respLayer16.utilization            0.0                       # Layer utilization (%)
system.tol2bus.respLayer17.occupancy        346321715                       # Layer occupancy (ticks)
system.tol2bus.respLayer17.utilization            0.9                       # Layer utilization (%)
system.tol2bus.respLayer20.occupancy          3160491                       # Layer occupancy (ticks)
system.tol2bus.respLayer20.utilization            0.0                       # Layer utilization (%)
system.tol2bus.respLayer21.occupancy        366991428                       # Layer occupancy (ticks)
system.tol2bus.respLayer21.utilization            0.9                       # Layer utilization (%)
system.tol2bus.respLayer24.occupancy          3462825                       # Layer occupancy (ticks)
system.tol2bus.respLayer24.utilization            0.0                       # Layer utilization (%)
system.tol2bus.respLayer25.occupancy        295117883                       # Layer occupancy (ticks)
system.tol2bus.respLayer25.utilization            0.7                       # Layer utilization (%)
system.tol2bus.respLayer28.occupancy          3160993                       # Layer occupancy (ticks)
system.tol2bus.respLayer28.utilization            0.0                       # Layer utilization (%)
system.tol2bus.respLayer29.occupancy        372515851                       # Layer occupancy (ticks)
system.tol2bus.respLayer29.utilization            0.9                       # Layer utilization (%)
system.tol2bus.respLayer32.occupancy          3251491                       # Layer occupancy (ticks)
system.tol2bus.respLayer32.utilization            0.0                       # Layer utilization (%)
system.tol2bus.respLayer33.occupancy        284087755                       # Layer occupancy (ticks)
system.tol2bus.respLayer33.utilization            0.7                       # Layer utilization (%)
system.tol2bus.respLayer36.occupancy          3200493                       # Layer occupancy (ticks)
system.tol2bus.respLayer36.utilization            0.0                       # Layer utilization (%)
system.tol2bus.respLayer37.occupancy        267907777                       # Layer occupancy (ticks)
system.tol2bus.respLayer37.utilization            0.7                       # Layer utilization (%)
system.tol2bus.respLayer40.occupancy          3224928                       # Layer occupancy (ticks)
system.tol2bus.respLayer40.utilization            0.0                       # Layer utilization (%)
system.tol2bus.respLayer41.occupancy        374824796                       # Layer occupancy (ticks)
system.tol2bus.respLayer41.utilization            0.9                       # Layer utilization (%)
system.tol2bus.respLayer44.occupancy          3262498                       # Layer occupancy (ticks)
system.tol2bus.respLayer44.utilization            0.0                       # Layer utilization (%)
system.tol2bus.respLayer45.occupancy        326538180                       # Layer occupancy (ticks)
system.tol2bus.respLayer45.utilization            0.8                       # Layer utilization (%)
system.tol2bus.respLayer48.occupancy          3268991                       # Layer occupancy (ticks)
system.tol2bus.respLayer48.utilization            0.0                       # Layer utilization (%)
system.tol2bus.respLayer49.occupancy        386630701                       # Layer occupancy (ticks)
system.tol2bus.respLayer49.utilization            1.0                       # Layer utilization (%)
system.tol2bus.respLayer52.occupancy          2586921                       # Layer occupancy (ticks)
system.tol2bus.respLayer52.utilization            0.0                       # Layer utilization (%)
system.tol2bus.respLayer53.occupancy        329842297                       # Layer occupancy (ticks)
system.tol2bus.respLayer53.utilization            0.8                       # Layer utilization (%)
system.tol2bus.respLayer56.occupancy          2675947                       # Layer occupancy (ticks)
system.tol2bus.respLayer56.utilization            0.0                       # Layer utilization (%)
system.tol2bus.respLayer57.occupancy        334072864                       # Layer occupancy (ticks)
system.tol2bus.respLayer57.utilization            0.8                       # Layer utilization (%)
system.tol2bus.respLayer60.occupancy          2549496                       # Layer occupancy (ticks)
system.tol2bus.respLayer60.utilization            0.0                       # Layer utilization (%)
system.tol2bus.respLayer61.occupancy        309502913                       # Layer occupancy (ticks)
system.tol2bus.respLayer61.utilization            0.8                       # Layer utilization (%)
system.tol2bus.respLayer64.occupancy          3284993                       # Layer occupancy (ticks)
system.tol2bus.respLayer64.utilization            0.0                       # Layer utilization (%)
system.tol2bus.respLayer65.occupancy        373615326                       # Layer occupancy (ticks)
system.tol2bus.respLayer65.utilization            0.9                       # Layer utilization (%)

---------- End Simulation Statistics   ----------
