
---------- Begin Simulation Statistics ----------
sim_seconds                                  0.000098                       # Number of seconds simulated
sim_ticks                                    98289000                       # Number of ticks simulated
final_tick                                   98289000                       # Number of ticks from beginning of simulation (restored from checkpoints and never reset)
sim_freq                                 1000000000000                       # Frequency of simulated ticks
host_inst_rate                                 186668                       # Simulator instruction rate (inst/s)
host_op_rate                                   200107                       # Simulator op (including micro ops) rate (op/s)
host_tick_rate                               62720087                       # Simulator tick rate (ticks/s)
host_mem_usage                                 685288                       # Number of bytes of host memory used
host_seconds                                     1.57                       # Real time elapsed on the host
sim_insts                                      292524                       # Number of instructions simulated
sim_ops                                        313587                       # Number of ops (including micro ops) simulated
system.voltage_domain.voltage                       1                       # Voltage in Volts
system.clk_domain.clock                          1000                       # Clock period in ticks
system.physmem.bytes_read::cpu0.inst            20352                       # Number of bytes read from this memory
system.physmem.bytes_read::cpu0.data            16896                       # Number of bytes read from this memory
system.physmem.bytes_read::cpu1.inst             6976                       # Number of bytes read from this memory
system.physmem.bytes_read::cpu1.data             4544                       # Number of bytes read from this memory
system.physmem.bytes_read::cpu2.inst             7744                       # Number of bytes read from this memory
system.physmem.bytes_read::cpu2.data             4544                       # Number of bytes read from this memory
system.physmem.bytes_read::total                61056                       # Number of bytes read from this memory
system.physmem.bytes_inst_read::cpu0.inst        20352                       # Number of instructions bytes read from this memory
system.physmem.bytes_inst_read::cpu1.inst         6976                       # Number of instructions bytes read from this memory
system.physmem.bytes_inst_read::cpu2.inst         7744                       # Number of instructions bytes read from this memory
system.physmem.bytes_inst_read::total           35072                       # Number of instructions bytes read from this memory
system.physmem.num_reads::cpu0.inst               318                       # Number of read requests responded to by this memory
system.physmem.num_reads::cpu0.data               264                       # Number of read requests responded to by this memory
system.physmem.num_reads::cpu1.inst               109                       # Number of read requests responded to by this memory
system.physmem.num_reads::cpu1.data                71                       # Number of read requests responded to by this memory
system.physmem.num_reads::cpu2.inst               121                       # Number of read requests responded to by this memory
system.physmem.num_reads::cpu2.data                71                       # Number of read requests responded to by this memory
system.physmem.num_reads::total                   954                       # Number of read requests responded to by this memory
system.physmem.bw_read::cpu0.inst           207062845                       # Total read bandwidth from this memory (bytes/s)
system.physmem.bw_read::cpu0.data           171901230                       # Total read bandwidth from this memory (bytes/s)
system.physmem.bw_read::cpu1.inst            70974371                       # Total read bandwidth from this memory (bytes/s)
system.physmem.bw_read::cpu1.data            46231013                       # Total read bandwidth from this memory (bytes/s)
system.physmem.bw_read::cpu2.inst            78788064                       # Total read bandwidth from this memory (bytes/s)
system.physmem.bw_read::cpu2.data            46231013                       # Total read bandwidth from this memory (bytes/s)
system.physmem.bw_read::total               621188536                       # Total read bandwidth from this memory (bytes/s)
system.physmem.bw_inst_read::cpu0.inst      207062845                       # Instruction read bandwidth from this memory (bytes/s)
system.physmem.bw_inst_read::cpu1.inst       70974371                       # Instruction read bandwidth from this memory (bytes/s)
system.physmem.bw_inst_read::cpu2.inst       78788064                       # Instruction read bandwidth from this memory (bytes/s)
system.physmem.bw_inst_read::total          356825281                       # Instruction read bandwidth from this memory (bytes/s)
system.physmem.bw_total::cpu0.inst          207062845                       # Total bandwidth to/from this memory (bytes/s)
system.physmem.bw_total::cpu0.data          171901230                       # Total bandwidth to/from this memory (bytes/s)
system.physmem.bw_total::cpu1.inst           70974371                       # Total bandwidth to/from this memory (bytes/s)
system.physmem.bw_total::cpu1.data           46231013                       # Total bandwidth to/from this memory (bytes/s)
system.physmem.bw_total::cpu2.inst           78788064                       # Total bandwidth to/from this memory (bytes/s)
system.physmem.bw_total::cpu2.data           46231013                       # Total bandwidth to/from this memory (bytes/s)
system.physmem.bw_total::total              621188536                       # Total bandwidth to/from this memory (bytes/s)
system.cpu0.branchPred.lookups                  38825                       # Number of BP lookups
system.cpu0.branchPred.condPredicted            37798                       # Number of conditional branches predicted
system.cpu0.branchPred.condIncorrect              692                       # Number of conditional branches incorrect
system.cpu0.branchPred.BTBLookups               36726                       # Number of BTB lookups
system.cpu0.branchPred.BTBHits                  36346                       # Number of BTB hits
system.cpu0.branchPred.BTBCorrect                   0                       # Number of correct BTB predictions (this stat may not work properly.
system.cpu0.branchPred.BTBHitPct            98.965311                       # BTB Hit Percentage
system.cpu0.branchPred.usedRAS                    389                       # Number of times the RAS was used to get a target.
system.cpu0.branchPred.RASInCorrect                51                       # Number of incorrect RAS predictions.
system.cpu0.dstage2_mmu.stage2_tlb.walker.walks            0                       # Table walker walks requested
system.cpu0.dstage2_mmu.stage2_tlb.walker.walkRequestOrigin_Requested::Data            0                       # Table walker requests started/completed, data/inst
system.cpu0.dstage2_mmu.stage2_tlb.walker.walkRequestOrigin_Requested::Inst            0                       # Table walker requests started/completed, data/inst
system.cpu0.dstage2_mmu.stage2_tlb.walker.walkRequestOrigin_Requested::total            0                       # Table walker requests started/completed, data/inst
system.cpu0.dstage2_mmu.stage2_tlb.walker.walkRequestOrigin_Completed::Data            0                       # Table walker requests started/completed, data/inst
system.cpu0.dstage2_mmu.stage2_tlb.walker.walkRequestOrigin_Completed::Inst            0                       # Table walker requests started/completed, data/inst
system.cpu0.dstage2_mmu.stage2_tlb.walker.walkRequestOrigin_Completed::total            0                       # Table walker requests started/completed, data/inst
system.cpu0.dstage2_mmu.stage2_tlb.walker.walkRequestOrigin::total            0                       # Table walker requests started/completed, data/inst
system.cpu0.dstage2_mmu.stage2_tlb.inst_hits            0                       # ITB inst hits
system.cpu0.dstage2_mmu.stage2_tlb.inst_misses            0                       # ITB inst misses
system.cpu0.dstage2_mmu.stage2_tlb.read_hits            0                       # DTB read hits
system.cpu0.dstage2_mmu.stage2_tlb.read_misses            0                       # DTB read misses
system.cpu0.dstage2_mmu.stage2_tlb.write_hits            0                       # DTB write hits
system.cpu0.dstage2_mmu.stage2_tlb.write_misses            0                       # DTB write misses
system.cpu0.dstage2_mmu.stage2_tlb.flush_tlb            0                       # Number of times complete TLB was flushed
system.cpu0.dstage2_mmu.stage2_tlb.flush_tlb_mva            0                       # Number of times TLB was flushed by MVA
system.cpu0.dstage2_mmu.stage2_tlb.flush_tlb_mva_asid            0                       # Number of times TLB was flushed by MVA & ASID
system.cpu0.dstage2_mmu.stage2_tlb.flush_tlb_asid            0                       # Number of times TLB was flushed by ASID
system.cpu0.dstage2_mmu.stage2_tlb.flush_entries            0                       # Number of entries that have been flushed from TLB
system.cpu0.dstage2_mmu.stage2_tlb.align_faults            0                       # Number of TLB faults due to alignment restrictions
system.cpu0.dstage2_mmu.stage2_tlb.prefetch_faults            0                       # Number of TLB faults due to prefetch
system.cpu0.dstage2_mmu.stage2_tlb.domain_faults            0                       # Number of TLB faults due to domain restrictions
system.cpu0.dstage2_mmu.stage2_tlb.perms_faults            0                       # Number of TLB faults due to permissions restrictions
system.cpu0.dstage2_mmu.stage2_tlb.read_accesses            0                       # DTB read accesses
system.cpu0.dstage2_mmu.stage2_tlb.write_accesses            0                       # DTB write accesses
system.cpu0.dstage2_mmu.stage2_tlb.inst_accesses            0                       # ITB inst accesses
system.cpu0.dstage2_mmu.stage2_tlb.hits             0                       # DTB hits
system.cpu0.dstage2_mmu.stage2_tlb.misses            0                       # DTB misses
system.cpu0.dstage2_mmu.stage2_tlb.accesses            0                       # DTB accesses
system.cpu0.dtb.walker.walks                        0                       # Table walker walks requested
system.cpu0.dtb.walker.walkRequestOrigin_Requested::Data            0                       # Table walker requests started/completed, data/inst
system.cpu0.dtb.walker.walkRequestOrigin_Requested::Inst            0                       # Table walker requests started/completed, data/inst
system.cpu0.dtb.walker.walkRequestOrigin_Requested::total            0                       # Table walker requests started/completed, data/inst
system.cpu0.dtb.walker.walkRequestOrigin_Completed::Data            0                       # Table walker requests started/completed, data/inst
system.cpu0.dtb.walker.walkRequestOrigin_Completed::Inst            0                       # Table walker requests started/completed, data/inst
system.cpu0.dtb.walker.walkRequestOrigin_Completed::total            0                       # Table walker requests started/completed, data/inst
system.cpu0.dtb.walker.walkRequestOrigin::total            0                       # Table walker requests started/completed, data/inst
system.cpu0.dtb.inst_hits                           0                       # ITB inst hits
system.cpu0.dtb.inst_misses                         0                       # ITB inst misses
system.cpu0.dtb.read_hits                           0                       # DTB read hits
system.cpu0.dtb.read_misses                         0                       # DTB read misses
system.cpu0.dtb.write_hits                          0                       # DTB write hits
system.cpu0.dtb.write_misses                        0                       # DTB write misses
system.cpu0.dtb.flush_tlb                           0                       # Number of times complete TLB was flushed
system.cpu0.dtb.flush_tlb_mva                       0                       # Number of times TLB was flushed by MVA
system.cpu0.dtb.flush_tlb_mva_asid                  0                       # Number of times TLB was flushed by MVA & ASID
system.cpu0.dtb.flush_tlb_asid                      0                       # Number of times TLB was flushed by ASID
system.cpu0.dtb.flush_entries                       0                       # Number of entries that have been flushed from TLB
system.cpu0.dtb.align_faults                        0                       # Number of TLB faults due to alignment restrictions
system.cpu0.dtb.prefetch_faults                     0                       # Number of TLB faults due to prefetch
system.cpu0.dtb.domain_faults                       0                       # Number of TLB faults due to domain restrictions
system.cpu0.dtb.perms_faults                        0                       # Number of TLB faults due to permissions restrictions
system.cpu0.dtb.read_accesses                       0                       # DTB read accesses
system.cpu0.dtb.write_accesses                      0                       # DTB write accesses
system.cpu0.dtb.inst_accesses                       0                       # ITB inst accesses
system.cpu0.dtb.hits                                0                       # DTB hits
system.cpu0.dtb.misses                              0                       # DTB misses
system.cpu0.dtb.accesses                            0                       # DTB accesses
system.cpu0.istage2_mmu.stage2_tlb.walker.walks            0                       # Table walker walks requested
system.cpu0.istage2_mmu.stage2_tlb.walker.walkRequestOrigin_Requested::Data            0                       # Table walker requests started/completed, data/inst
system.cpu0.istage2_mmu.stage2_tlb.walker.walkRequestOrigin_Requested::Inst            0                       # Table walker requests started/completed, data/inst
system.cpu0.istage2_mmu.stage2_tlb.walker.walkRequestOrigin_Requested::total            0                       # Table walker requests started/completed, data/inst
system.cpu0.istage2_mmu.stage2_tlb.walker.walkRequestOrigin_Completed::Data            0                       # Table walker requests started/completed, data/inst
system.cpu0.istage2_mmu.stage2_tlb.walker.walkRequestOrigin_Completed::Inst            0                       # Table walker requests started/completed, data/inst
system.cpu0.istage2_mmu.stage2_tlb.walker.walkRequestOrigin_Completed::total            0                       # Table walker requests started/completed, data/inst
system.cpu0.istage2_mmu.stage2_tlb.walker.walkRequestOrigin::total            0                       # Table walker requests started/completed, data/inst
system.cpu0.istage2_mmu.stage2_tlb.inst_hits            0                       # ITB inst hits
system.cpu0.istage2_mmu.stage2_tlb.inst_misses            0                       # ITB inst misses
system.cpu0.istage2_mmu.stage2_tlb.read_hits            0                       # DTB read hits
system.cpu0.istage2_mmu.stage2_tlb.read_misses            0                       # DTB read misses
system.cpu0.istage2_mmu.stage2_tlb.write_hits            0                       # DTB write hits
system.cpu0.istage2_mmu.stage2_tlb.write_misses            0                       # DTB write misses
system.cpu0.istage2_mmu.stage2_tlb.flush_tlb            0                       # Number of times complete TLB was flushed
system.cpu0.istage2_mmu.stage2_tlb.flush_tlb_mva            0                       # Number of times TLB was flushed by MVA
system.cpu0.istage2_mmu.stage2_tlb.flush_tlb_mva_asid            0                       # Number of times TLB was flushed by MVA & ASID
system.cpu0.istage2_mmu.stage2_tlb.flush_tlb_asid            0                       # Number of times TLB was flushed by ASID
system.cpu0.istage2_mmu.stage2_tlb.flush_entries            0                       # Number of entries that have been flushed from TLB
system.cpu0.istage2_mmu.stage2_tlb.align_faults            0                       # Number of TLB faults due to alignment restrictions
system.cpu0.istage2_mmu.stage2_tlb.prefetch_faults            0                       # Number of TLB faults due to prefetch
system.cpu0.istage2_mmu.stage2_tlb.domain_faults            0                       # Number of TLB faults due to domain restrictions
system.cpu0.istage2_mmu.stage2_tlb.perms_faults            0                       # Number of TLB faults due to permissions restrictions
system.cpu0.istage2_mmu.stage2_tlb.read_accesses            0                       # DTB read accesses
system.cpu0.istage2_mmu.stage2_tlb.write_accesses            0                       # DTB write accesses
system.cpu0.istage2_mmu.stage2_tlb.inst_accesses            0                       # ITB inst accesses
system.cpu0.istage2_mmu.stage2_tlb.hits             0                       # DTB hits
system.cpu0.istage2_mmu.stage2_tlb.misses            0                       # DTB misses
system.cpu0.istage2_mmu.stage2_tlb.accesses            0                       # DTB accesses
system.cpu0.itb.walker.walks                        0                       # Table walker walks requested
system.cpu0.itb.walker.walkRequestOrigin_Requested::Data            0                       # Table walker requests started/completed, data/inst
system.cpu0.itb.walker.walkRequestOrigin_Requested::Inst            0                       # Table walker requests started/completed, data/inst
system.cpu0.itb.walker.walkRequestOrigin_Requested::total            0                       # Table walker requests started/completed, data/inst
system.cpu0.itb.walker.walkRequestOrigin_Completed::Data            0                       # Table walker requests started/completed, data/inst
system.cpu0.itb.walker.walkRequestOrigin_Completed::Inst            0                       # Table walker requests started/completed, data/inst
system.cpu0.itb.walker.walkRequestOrigin_Completed::total            0                       # Table walker requests started/completed, data/inst
system.cpu0.itb.walker.walkRequestOrigin::total            0                       # Table walker requests started/completed, data/inst
system.cpu0.itb.inst_hits                           0                       # ITB inst hits
system.cpu0.itb.inst_misses                         0                       # ITB inst misses
system.cpu0.itb.read_hits                           0                       # DTB read hits
system.cpu0.itb.read_misses                         0                       # DTB read misses
system.cpu0.itb.write_hits                          0                       # DTB write hits
system.cpu0.itb.write_misses                        0                       # DTB write misses
system.cpu0.itb.flush_tlb                           0                       # Number of times complete TLB was flushed
system.cpu0.itb.flush_tlb_mva                       0                       # Number of times TLB was flushed by MVA
system.cpu0.itb.flush_tlb_mva_asid                  0                       # Number of times TLB was flushed by MVA & ASID
system.cpu0.itb.flush_tlb_asid                      0                       # Number of times TLB was flushed by ASID
system.cpu0.itb.flush_entries                       0                       # Number of entries that have been flushed from TLB
system.cpu0.itb.align_faults                        0                       # Number of TLB faults due to alignment restrictions
system.cpu0.itb.prefetch_faults                     0                       # Number of TLB faults due to prefetch
system.cpu0.itb.domain_faults                       0                       # Number of TLB faults due to domain restrictions
system.cpu0.itb.perms_faults                        0                       # Number of TLB faults due to permissions restrictions
system.cpu0.itb.read_accesses                       0                       # DTB read accesses
system.cpu0.itb.write_accesses                      0                       # DTB write accesses
system.cpu0.itb.inst_accesses                       0                       # ITB inst accesses
system.cpu0.itb.hits                                0                       # DTB hits
system.cpu0.itb.misses                              0                       # DTB misses
system.cpu0.itb.accesses                            0                       # DTB accesses
system.cpu0.workload.num_syscalls                  56                       # Number of system calls
system.cpu0.numCycles                           98290                       # number of cpu cycles simulated
system.cpu0.numWorkItemsStarted                     0                       # number of work items this cpu started
system.cpu0.numWorkItemsCompleted                   0                       # number of work items this cpu completed
system.cpu0.fetch.icacheStallCycles              7769                       # Number of cycles fetch is stalled on an Icache miss
system.cpu0.fetch.Insts                        195694                       # Number of instructions fetch has processed
system.cpu0.fetch.Branches                      38825                       # Number of branches that fetch encountered
system.cpu0.fetch.predictedBranches             36735                       # Number of branches that fetch has predicted taken
system.cpu0.fetch.Cycles                        82279                       # Number of cycles fetch has run and was not squashing or blocked
system.cpu0.fetch.SquashCycles                   1430                       # Number of cycles fetch has spent squashing
system.cpu0.fetch.PendingTrapStallCycles          156                       # Number of stall cycles due to pending traps
system.cpu0.fetch.CacheLines                     2092                       # Number of cache lines fetched
system.cpu0.fetch.IcacheSquashes                  242                       # Number of outstanding Icache misses that were squashed
system.cpu0.fetch.rateDist::samples             90919                       # Number of instructions fetched each cycle (Total)
system.cpu0.fetch.rateDist::mean             2.206008                       # Number of instructions fetched each cycle (Total)
system.cpu0.fetch.rateDist::stdev            0.966631                       # Number of instructions fetched each cycle (Total)
system.cpu0.fetch.rateDist::underflows              0      0.00%      0.00% # Number of instructions fetched each cycle (Total)
system.cpu0.fetch.rateDist::0                   11442     12.58%     12.58% # Number of instructions fetched each cycle (Total)
system.cpu0.fetch.rateDist::1                     714      0.79%     13.37% # Number of instructions fetched each cycle (Total)
system.cpu0.fetch.rateDist::2                   36435     40.07%     53.44% # Number of instructions fetched each cycle (Total)
system.cpu0.fetch.rateDist::3                   42328     46.56%    100.00% # Number of instructions fetched each cycle (Total)
system.cpu0.fetch.rateDist::overflows               0      0.00%    100.00% # Number of instructions fetched each cycle (Total)
system.cpu0.fetch.rateDist::min_value               0                       # Number of instructions fetched each cycle (Total)
system.cpu0.fetch.rateDist::max_value               3                       # Number of instructions fetched each cycle (Total)
system.cpu0.fetch.rateDist::total               90919                       # Number of instructions fetched each cycle (Total)
system.cpu0.fetch.branchRate                 0.395005                       # Number of branch fetches per cycle
system.cpu0.fetch.rate                       1.990986                       # Number of inst fetches per cycle
system.cpu0.decode.IdleCycles                    7211                       # Number of cycles decode is idle
system.cpu0.decode.BlockedCycles                 4637                       # Number of cycles decode is blocked
system.cpu0.decode.RunCycles                    78005                       # Number of cycles decode is running
system.cpu0.decode.UnblockCycles                  528                       # Number of cycles decode is unblocking
system.cpu0.decode.SquashCycles                   538                       # Number of cycles decode is squashing
system.cpu0.decode.BranchResolved                 385                       # Number of times decode resolved a branch
system.cpu0.decode.BranchMispred                  192                       # Number of times decode detected a branch misprediction
system.cpu0.decode.DecodedInsts                197917                       # Number of instructions handled by decode
system.cpu0.decode.SquashedInsts                  431                       # Number of squashed instructions handled by decode
system.cpu0.rename.SquashCycles                   538                       # Number of cycles rename is squashing
system.cpu0.rename.IdleCycles                    7834                       # Number of cycles rename is idle
system.cpu0.rename.BlockCycles                    470                       # Number of cycles rename is blocking
system.cpu0.rename.serializeStallCycles          1728                       # count of cycles rename stalled for serializing inst
system.cpu0.rename.RunCycles                    77825                       # Number of cycles rename is running
system.cpu0.rename.UnblockCycles                 2524                       # Number of cycles rename is unblocking
system.cpu0.rename.RenamedInsts                197052                       # Number of instructions processed by rename
system.cpu0.rename.SQFullEvents                  2413                       # Number of times rename has blocked due to SQ full
system.cpu0.rename.RenamedOperands             198874                       # Number of destination operands rename has renamed
system.cpu0.rename.RenameLookups               911605                       # Number of register rename lookups that rename has made
system.cpu0.rename.int_rename_lookups          203021                       # Number of integer rename lookups
system.cpu0.rename.fp_rename_lookups               16                       # Number of floating rename lookups
system.cpu0.rename.CommittedMaps               191679                       # Number of HB maps that are committed
system.cpu0.rename.UndoneMaps                    7168                       # Number of HB maps that are undone due to squashing
system.cpu0.rename.serializingInsts                43                       # count of serializing insts renamed
system.cpu0.rename.tempSerializingInsts            42                       # count of temporary serializing insts renamed
system.cpu0.rename.skidInsts                     1045                       # count of insts added to the skid buffer
system.cpu0.memDep0.insertedLoads               74013                       # Number of loads inserted to the mem dependence unit.
system.cpu0.memDep0.insertedStores              39546                       # Number of stores inserted to the mem dependence unit.
system.cpu0.memDep0.conflictingLoads            35753                       # Number of conflicting loads.
system.cpu0.memDep0.conflictingStores           35709                       # Number of conflicting stores.
system.cpu0.iq.iqInstsAdded                    195357                       # Number of instructions added to the IQ (excludes non-spec)
system.cpu0.iq.iqNonSpecInstsAdded                 63                       # Number of non-speculative instructions added to the IQ
system.cpu0.iq.iqInstsIssued                   193622                       # Number of instructions issued
system.cpu0.iq.iqSquashedInstsIssued              136                       # Number of squashed instructions issued
system.cpu0.iq.iqSquashedInstsExamined           4725                       # Number of squashed instructions iterated over during squash; mainly for profiling
system.cpu0.iq.iqSquashedOperandsExamined        11631                       # Number of squashed operands that are examined and possibly removed from graph
system.cpu0.iq.iqSquashedNonSpecRemoved             3                       # Number of squashed non-spec instructions that were removed
system.cpu0.iq.issued_per_cycle::samples        90919                       # Number of insts issued each cycle
system.cpu0.iq.issued_per_cycle::mean        2.129610                       # Number of insts issued each cycle
system.cpu0.iq.issued_per_cycle::stdev       0.985088                       # Number of insts issued each cycle
system.cpu0.iq.issued_per_cycle::underflows            0      0.00%      0.00% # Number of insts issued each cycle
system.cpu0.iq.issued_per_cycle::0              12074     13.28%     13.28% # Number of insts issued each cycle
system.cpu0.iq.issued_per_cycle::1               2763      3.04%     16.32% # Number of insts issued each cycle
system.cpu0.iq.issued_per_cycle::2              37387     41.12%     57.44% # Number of insts issued each cycle
system.cpu0.iq.issued_per_cycle::3              38695     42.56%    100.00% # Number of insts issued each cycle
system.cpu0.iq.issued_per_cycle::overflows            0      0.00%    100.00% # Number of insts issued each cycle
system.cpu0.iq.issued_per_cycle::min_value            0                       # Number of insts issued each cycle
system.cpu0.iq.issued_per_cycle::max_value            3                       # Number of insts issued each cycle
system.cpu0.iq.issued_per_cycle::total          90919                       # Number of insts issued each cycle
system.cpu0.iq.fu_full::No_OpClass                  0                       # attempts to use FU when none available
system.cpu0.iq.fu_full::IntAlu                      0                       # attempts to use FU when none available
system.cpu0.iq.fu_full::IntMult                     0                       # attempts to use FU when none available
system.cpu0.iq.fu_full::IntDiv                      0                       # attempts to use FU when none available
system.cpu0.iq.fu_full::FloatAdd                    0                       # attempts to use FU when none available
system.cpu0.iq.fu_full::FloatCmp                    0                       # attempts to use FU when none available
system.cpu0.iq.fu_full::FloatCvt                    0                       # attempts to use FU when none available
system.cpu0.iq.fu_full::FloatMult                   0                       # attempts to use FU when none available
system.cpu0.iq.fu_full::FloatDiv                    0                       # attempts to use FU when none available
system.cpu0.iq.fu_full::FloatSqrt                   0                       # attempts to use FU when none available
system.cpu0.iq.fu_full::SimdAdd                     0                       # attempts to use FU when none available
system.cpu0.iq.fu_full::SimdAddAcc                  0                       # attempts to use FU when none available
system.cpu0.iq.fu_full::SimdAlu                     0                       # attempts to use FU when none available
system.cpu0.iq.fu_full::SimdCmp                     0                       # attempts to use FU when none available
system.cpu0.iq.fu_full::SimdCvt                     0                       # attempts to use FU when none available
system.cpu0.iq.fu_full::SimdMisc                    0                       # attempts to use FU when none available
system.cpu0.iq.fu_full::SimdMult                    0                       # attempts to use FU when none available
system.cpu0.iq.fu_full::SimdMultAcc                 0                       # attempts to use FU when none available
system.cpu0.iq.fu_full::SimdShift                   0                       # attempts to use FU when none available
system.cpu0.iq.fu_full::SimdShiftAcc                0                       # attempts to use FU when none available
system.cpu0.iq.fu_full::SimdSqrt                    0                       # attempts to use FU when none available
system.cpu0.iq.fu_full::SimdFloatAdd                0                       # attempts to use FU when none available
system.cpu0.iq.fu_full::SimdFloatAlu                0                       # attempts to use FU when none available
system.cpu0.iq.fu_full::SimdFloatCmp                0                       # attempts to use FU when none available
system.cpu0.iq.fu_full::SimdFloatCvt                0                       # attempts to use FU when none available
system.cpu0.iq.fu_full::SimdFloatDiv                0                       # attempts to use FU when none available
system.cpu0.iq.fu_full::SimdFloatMisc               0                       # attempts to use FU when none available
system.cpu0.iq.fu_full::SimdFloatMult               0                       # attempts to use FU when none available
system.cpu0.iq.fu_full::SimdFloatMultAcc            0                       # attempts to use FU when none available
system.cpu0.iq.fu_full::SimdFloatSqrt               0                       # attempts to use FU when none available
system.cpu0.iq.fu_full::MemRead                     0                       # attempts to use FU when none available
system.cpu0.iq.fu_full::MemWrite                    0                       # attempts to use FU when none available
system.cpu0.iq.fu_full::IprAccess                   0                       # attempts to use FU when none available
system.cpu0.iq.fu_full::InstPrefetch                0                       # attempts to use FU when none available
system.cpu0.iq.FU_type_0::No_OpClass                0      0.00%      0.00% # Type of FU issued
system.cpu0.iq.FU_type_0::IntAlu                80555     41.60%     41.60% # Type of FU issued
system.cpu0.iq.FU_type_0::IntMult                   6      0.00%     41.61% # Type of FU issued
system.cpu0.iq.FU_type_0::IntDiv                    0      0.00%     41.61% # Type of FU issued
system.cpu0.iq.FU_type_0::FloatAdd                  0      0.00%     41.61% # Type of FU issued
system.cpu0.iq.FU_type_0::FloatCmp                  0      0.00%     41.61% # Type of FU issued
system.cpu0.iq.FU_type_0::FloatCvt                  0      0.00%     41.61% # Type of FU issued
system.cpu0.iq.FU_type_0::FloatMult                 0      0.00%     41.61% # Type of FU issued
system.cpu0.iq.FU_type_0::FloatDiv                  0      0.00%     41.61% # Type of FU issued
system.cpu0.iq.FU_type_0::FloatSqrt                 0      0.00%     41.61% # Type of FU issued
system.cpu0.iq.FU_type_0::SimdAdd                   0      0.00%     41.61% # Type of FU issued
system.cpu0.iq.FU_type_0::SimdAddAcc                0      0.00%     41.61% # Type of FU issued
system.cpu0.iq.FU_type_0::SimdAlu                   0      0.00%     41.61% # Type of FU issued
system.cpu0.iq.FU_type_0::SimdCmp                   0      0.00%     41.61% # Type of FU issued
system.cpu0.iq.FU_type_0::SimdCvt                   0      0.00%     41.61% # Type of FU issued
system.cpu0.iq.FU_type_0::SimdMisc                  0      0.00%     41.61% # Type of FU issued
system.cpu0.iq.FU_type_0::SimdMult                  0      0.00%     41.61% # Type of FU issued
system.cpu0.iq.FU_type_0::SimdMultAcc               0      0.00%     41.61% # Type of FU issued
system.cpu0.iq.FU_type_0::SimdShift                 0      0.00%     41.61% # Type of FU issued
system.cpu0.iq.FU_type_0::SimdShiftAcc              0      0.00%     41.61% # Type of FU issued
system.cpu0.iq.FU_type_0::SimdSqrt                  0      0.00%     41.61% # Type of FU issued
system.cpu0.iq.FU_type_0::SimdFloatAdd              0      0.00%     41.61% # Type of FU issued
system.cpu0.iq.FU_type_0::SimdFloatAlu              0      0.00%     41.61% # Type of FU issued
system.cpu0.iq.FU_type_0::SimdFloatCmp              0      0.00%     41.61% # Type of FU issued
system.cpu0.iq.FU_type_0::SimdFloatCvt              0      0.00%     41.61% # Type of FU issued
system.cpu0.iq.FU_type_0::SimdFloatDiv              0      0.00%     41.61% # Type of FU issued
system.cpu0.iq.FU_type_0::SimdFloatMisc             3      0.00%     41.61% # Type of FU issued
system.cpu0.iq.FU_type_0::SimdFloatMult             0      0.00%     41.61% # Type of FU issued
system.cpu0.iq.FU_type_0::SimdFloatMultAcc            0      0.00%     41.61% # Type of FU issued
system.cpu0.iq.FU_type_0::SimdFloatSqrt             0      0.00%     41.61% # Type of FU issued
system.cpu0.iq.FU_type_0::MemRead               73755     38.09%     79.70% # Type of FU issued
system.cpu0.iq.FU_type_0::MemWrite              39303     20.30%    100.00% # Type of FU issued
system.cpu0.iq.FU_type_0::IprAccess                 0      0.00%    100.00% # Type of FU issued
system.cpu0.iq.FU_type_0::InstPrefetch              0      0.00%    100.00% # Type of FU issued
system.cpu0.iq.FU_type_0::total                193622                       # Type of FU issued
system.cpu0.iq.rate                          1.969905                       # Inst issue rate
system.cpu0.iq.fu_busy_cnt                          0                       # FU busy when requested
system.cpu0.iq.fu_busy_rate                         0                       # FU busy rate (busy events/executed inst)
system.cpu0.iq.int_inst_queue_reads            478264                       # Number of integer instruction queue reads
system.cpu0.iq.int_inst_queue_writes           200141                       # Number of integer instruction queue writes
system.cpu0.iq.int_inst_queue_wakeup_accesses       192577                       # Number of integer instruction queue wakeup accesses
system.cpu0.iq.fp_inst_queue_reads                 32                       # Number of floating instruction queue reads
system.cpu0.iq.fp_inst_queue_writes                16                       # Number of floating instruction queue writes
system.cpu0.iq.fp_inst_queue_wakeup_accesses           16                       # Number of floating instruction queue wakeup accesses
system.cpu0.iq.int_alu_accesses                193606                       # Number of integer alu accesses
system.cpu0.iq.fp_alu_accesses                     16                       # Number of floating point alu accesses
system.cpu0.iew.lsq.thread0.forwLoads           35758                       # Number of loads that had data forwarded from stores
system.cpu0.iew.lsq.thread0.invAddrLoads            0                       # Number of loads ignored due to an invalid address
system.cpu0.iew.lsq.thread0.squashedLoads         1158                       # Number of loads squashed
system.cpu0.iew.lsq.thread0.ignoredResponses            0                       # Number of memory responses ignored because the instruction is squashed
system.cpu0.iew.lsq.thread0.memOrderViolation           12                       # Number of memory ordering violations
system.cpu0.iew.lsq.thread0.squashedStores          452                       # Number of stores squashed
system.cpu0.iew.lsq.thread0.invAddrSwpfs            0                       # Number of software prefetches ignored due to an invalid address
system.cpu0.iew.lsq.thread0.blockedLoads            0                       # Number of blocked loads due to partial load-store forwarding
system.cpu0.iew.lsq.thread0.rescheduledLoads            4                       # Number of loads that were rescheduled
system.cpu0.iew.lsq.thread0.cacheBlocked            0                       # Number of times an access to memory failed due to the cache being blocked
system.cpu0.iew.iewIdleCycles                       0                       # Number of cycles IEW is idle
system.cpu0.iew.iewSquashCycles                   538                       # Number of cycles IEW is squashing
system.cpu0.iew.iewBlockCycles                    364                       # Number of cycles IEW is blocking
system.cpu0.iew.iewUnblockCycles                  109                       # Number of cycles IEW is unblocking
system.cpu0.iew.iewDispatchedInsts             195438                       # Number of instructions dispatched to IQ
system.cpu0.iew.iewDispSquashedInsts              374                       # Number of squashed instructions skipped by dispatch
system.cpu0.iew.iewDispLoadInsts                74013                       # Number of dispatched load instructions
system.cpu0.iew.iewDispStoreInsts               39546                       # Number of dispatched store instructions
system.cpu0.iew.iewDispNonSpecInsts                39                       # Number of dispatched non-speculative instructions
system.cpu0.iew.iewIQFullEvents                     2                       # Number of times the IQ has become full, causing a stall
system.cpu0.iew.iewLSQFullEvents                    0                       # Number of times the LSQ has become full, causing a stall
system.cpu0.iew.memOrderViolationEvents            12                       # Number of memory order violations
system.cpu0.iew.predictedTakenIncorrect            72                       # Number of branches that were predicted taken incorrectly
system.cpu0.iew.predictedNotTakenIncorrect          465                       # Number of branches that were predicted not taken incorrectly
system.cpu0.iew.branchMispredicts                 537                       # Number of branch mispredicts detected at execute
system.cpu0.iew.iewExecutedInsts               193003                       # Number of executed instructions
system.cpu0.iew.iewExecLoadInsts                73568                       # Number of load instructions executed
system.cpu0.iew.iewExecSquashedInsts              616                       # Number of squashed instructions skipped in execute
system.cpu0.iew.exec_swp                            0                       # number of swp insts executed
system.cpu0.iew.exec_nop                           18                       # number of nop insts executed
system.cpu0.iew.exec_refs                      112809                       # number of memory reference insts executed
system.cpu0.iew.exec_branches                   37607                       # Number of branches executed
system.cpu0.iew.exec_stores                     39241                       # Number of stores executed
system.cpu0.iew.exec_rate                    1.963608                       # Inst execution rate
system.cpu0.iew.wb_sent                        192693                       # cumulative count of insts sent to commit
system.cpu0.iew.wb_count                       192593                       # cumulative count of insts written-back
system.cpu0.iew.wb_producers                   113404                       # num instructions producing a value
system.cpu0.iew.wb_consumers                   123619                       # num instructions consuming a value
system.cpu0.iew.wb_penalized                        0                       # number of instrctions required to write to 'other' IQ
system.cpu0.iew.wb_rate                      1.959436                       # insts written-back per cycle
system.cpu0.iew.wb_fanout                    0.917367                       # average fanout of values written-back
system.cpu0.iew.wb_penalized_rate                   0                       # fraction of instructions written-back that wrote to 'other' IQ
system.cpu0.commit.commitSquashedInsts           4743                       # The number of squashed insts skipped by commit
system.cpu0.commit.commitNonSpecStalls             60                       # The number of times commit has been forced to stall to communicate backwards
system.cpu0.commit.branchMispredicts              515                       # The number of times a branch was mispredicted
system.cpu0.commit.committed_per_cycle::samples        90036                       # Number of insts commited each cycle
system.cpu0.commit.committed_per_cycle::mean     2.117764                       # Number of insts commited each cycle
system.cpu0.commit.committed_per_cycle::stdev     1.631854                       # Number of insts commited each cycle
system.cpu0.commit.committed_per_cycle::underflows            0      0.00%      0.00% # Number of insts commited each cycle
system.cpu0.commit.committed_per_cycle::0        12994     14.43%     14.43% # Number of insts commited each cycle
system.cpu0.commit.committed_per_cycle::1        38083     42.30%     56.73% # Number of insts commited each cycle
system.cpu0.commit.committed_per_cycle::2         1107      1.23%     57.96% # Number of insts commited each cycle
system.cpu0.commit.committed_per_cycle::3         1685      1.87%     59.83% # Number of insts commited each cycle
system.cpu0.commit.committed_per_cycle::4        35890     39.86%     99.69% # Number of insts commited each cycle
system.cpu0.commit.committed_per_cycle::5           95      0.11%     99.80% # Number of insts commited each cycle
system.cpu0.commit.committed_per_cycle::6           72      0.08%     99.88% # Number of insts commited each cycle
system.cpu0.commit.committed_per_cycle::7           24      0.03%     99.90% # Number of insts commited each cycle
system.cpu0.commit.committed_per_cycle::8           86      0.10%    100.00% # Number of insts commited each cycle
system.cpu0.commit.committed_per_cycle::overflows            0      0.00%    100.00% # Number of insts commited each cycle
system.cpu0.commit.committed_per_cycle::min_value            0                       # Number of insts commited each cycle
system.cpu0.commit.committed_per_cycle::max_value            8                       # Number of insts commited each cycle
system.cpu0.commit.committed_per_cycle::total        90036                       # Number of insts commited each cycle
system.cpu0.commit.committedInsts              187433                       # Number of instructions committed
system.cpu0.commit.committedOps                190675                       # Number of ops (including micro ops) committed
system.cpu0.commit.swp_count                        0                       # Number of s/w prefetches committed
system.cpu0.commit.refs                        111937                       # Number of memory references committed
system.cpu0.commit.loads                        72847                       # Number of loads committed
system.cpu0.commit.membars                         24                       # Number of memory barriers committed
system.cpu0.commit.branches                     37279                       # Number of branches committed
system.cpu0.commit.fp_insts                        16                       # Number of committed floating point instructions.
system.cpu0.commit.int_insts                   153745                       # Number of committed integer instructions.
system.cpu0.commit.function_calls                 134                       # Number of function calls committed.
system.cpu0.commit.op_class_0::No_OpClass            0      0.00%      0.00% # Class of committed instruction
system.cpu0.commit.op_class_0::IntAlu           78729     41.29%     41.29% # Class of committed instruction
system.cpu0.commit.op_class_0::IntMult              6      0.00%     41.29% # Class of committed instruction
system.cpu0.commit.op_class_0::IntDiv               0      0.00%     41.29% # Class of committed instruction
system.cpu0.commit.op_class_0::FloatAdd             0      0.00%     41.29% # Class of committed instruction
system.cpu0.commit.op_class_0::FloatCmp             0      0.00%     41.29% # Class of committed instruction
system.cpu0.commit.op_class_0::FloatCvt             0      0.00%     41.29% # Class of committed instruction
system.cpu0.commit.op_class_0::FloatMult            0      0.00%     41.29% # Class of committed instruction
system.cpu0.commit.op_class_0::FloatDiv             0      0.00%     41.29% # Class of committed instruction
system.cpu0.commit.op_class_0::FloatSqrt            0      0.00%     41.29% # Class of committed instruction
system.cpu0.commit.op_class_0::SimdAdd              0      0.00%     41.29% # Class of committed instruction
system.cpu0.commit.op_class_0::SimdAddAcc            0      0.00%     41.29% # Class of committed instruction
system.cpu0.commit.op_class_0::SimdAlu              0      0.00%     41.29% # Class of committed instruction
system.cpu0.commit.op_class_0::SimdCmp              0      0.00%     41.29% # Class of committed instruction
system.cpu0.commit.op_class_0::SimdCvt              0      0.00%     41.29% # Class of committed instruction
system.cpu0.commit.op_class_0::SimdMisc             0      0.00%     41.29% # Class of committed instruction
system.cpu0.commit.op_class_0::SimdMult             0      0.00%     41.29% # Class of committed instruction
system.cpu0.commit.op_class_0::SimdMultAcc            0      0.00%     41.29% # Class of committed instruction
system.cpu0.commit.op_class_0::SimdShift            0      0.00%     41.29% # Class of committed instruction
system.cpu0.commit.op_class_0::SimdShiftAcc            0      0.00%     41.29% # Class of committed instruction
system.cpu0.commit.op_class_0::SimdSqrt             0      0.00%     41.29% # Class of committed instruction
system.cpu0.commit.op_class_0::SimdFloatAdd            0      0.00%     41.29% # Class of committed instruction
system.cpu0.commit.op_class_0::SimdFloatAlu            0      0.00%     41.29% # Class of committed instruction
system.cpu0.commit.op_class_0::SimdFloatCmp            0      0.00%     41.29% # Class of committed instruction
system.cpu0.commit.op_class_0::SimdFloatCvt            0      0.00%     41.29% # Class of committed instruction
system.cpu0.commit.op_class_0::SimdFloatDiv            0      0.00%     41.29% # Class of committed instruction
system.cpu0.commit.op_class_0::SimdFloatMisc            3      0.00%     41.29% # Class of committed instruction
system.cpu0.commit.op_class_0::SimdFloatMult            0      0.00%     41.29% # Class of committed instruction
system.cpu0.commit.op_class_0::SimdFloatMultAcc            0      0.00%     41.29% # Class of committed instruction
system.cpu0.commit.op_class_0::SimdFloatSqrt            0      0.00%     41.29% # Class of committed instruction
system.cpu0.commit.op_class_0::MemRead          72847     38.20%     79.50% # Class of committed instruction
system.cpu0.commit.op_class_0::MemWrite         39090     20.50%    100.00% # Class of committed instruction
system.cpu0.commit.op_class_0::IprAccess            0      0.00%    100.00% # Class of committed instruction
system.cpu0.commit.op_class_0::InstPrefetch            0      0.00%    100.00% # Class of committed instruction
system.cpu0.commit.op_class_0::total           190675                       # Class of committed instruction
system.cpu0.commit.bw_lim_events                   86                       # number cycles where commit BW limit reached
system.cpu0.rob.rob_reads                      285211                       # The number of ROB reads
system.cpu0.rob.rob_writes                     391744                       # The number of ROB writes
system.cpu0.timesIdled                            219                       # Number of times that the entire CPU went into an idle state and unscheduled itself
system.cpu0.idleCycles                           7371                       # Total number of cycles that the CPU has spent unscheduled due to idling
system.cpu0.committedInsts                     187433                       # Number of Instructions Simulated
system.cpu0.committedOps                       190675                       # Number of Ops (including micro ops) Simulated
system.cpu0.cpi                              0.524401                       # CPI: Cycles Per Instruction
system.cpu0.cpi_total                        0.524401                       # CPI: Total CPI of All Threads
system.cpu0.ipc                              1.906939                       # IPC: Instructions Per Cycle
system.cpu0.ipc_total                        1.906939                       # IPC: Total IPC of All Threads
system.cpu0.int_regfile_reads                  195636                       # number of integer regfile reads
system.cpu0.int_regfile_writes                  79371                       # number of integer regfile writes
system.cpu0.fp_regfile_reads                      336                       # number of floating regfile reads
system.cpu0.cc_regfile_reads                   798391                       # number of cc regfile reads
system.cpu0.cc_regfile_writes                  114364                       # number of cc regfile writes
system.cpu0.misc_regfile_reads                 113660                       # number of misc regfile reads
system.cpu0.misc_regfile_writes                    48                       # number of misc regfile writes
system.cpu0.dcache.tags.replacements               26                       # number of replacements
system.cpu0.dcache.tags.tagsinuse          213.719618                       # Cycle average of tags in use
system.cpu0.dcache.tags.total_refs              74028                       # Total number of references to valid blocks.
system.cpu0.dcache.tags.sampled_refs              244                       # Sample count of references to valid blocks.
system.cpu0.dcache.tags.avg_refs           303.393443                       # Average number of references to valid blocks.
system.cpu0.dcache.tags.warmup_cycle                0                       # Cycle when the warmup percentage was hit.
system.cpu0.dcache.tags.occ_blocks::cpu0.data   213.719618                       # Average occupied blocks per requestor
system.cpu0.dcache.tags.occ_percent::cpu0.data     0.417421                       # Average percentage of cache occupancy
system.cpu0.dcache.tags.occ_percent::total     0.417421                       # Average percentage of cache occupancy
system.cpu0.dcache.tags.occ_task_id_blocks::1024          218                       # Occupied blocks per task id
system.cpu0.dcache.tags.age_task_id_blocks_1024::1          218                       # Occupied blocks per task id
system.cpu0.dcache.tags.occ_task_id_percent::1024     0.425781                       # Percentage of cache occupancy per task id
system.cpu0.dcache.tags.tag_accesses           153656                       # Number of tag accesses
system.cpu0.dcache.tags.data_accesses          153656                       # Number of data accesses
system.cpu0.dcache.ReadReq_hits::cpu0.data        37453                       # number of ReadReq hits
system.cpu0.dcache.ReadReq_hits::total          37453                       # number of ReadReq hits
system.cpu0.dcache.WriteReq_hits::cpu0.data        36670                       # number of WriteReq hits
system.cpu0.dcache.WriteReq_hits::total         36670                       # number of WriteReq hits
system.cpu0.dcache.LoadLockedReq_hits::cpu0.data           20                       # number of LoadLockedReq hits
system.cpu0.dcache.LoadLockedReq_hits::total           20                       # number of LoadLockedReq hits
system.cpu0.dcache.StoreCondReq_hits::cpu0.data           23                       # number of StoreCondReq hits
system.cpu0.dcache.StoreCondReq_hits::total           23                       # number of StoreCondReq hits
system.cpu0.dcache.demand_hits::cpu0.data        74123                       # number of demand (read+write) hits
system.cpu0.dcache.demand_hits::total           74123                       # number of demand (read+write) hits
system.cpu0.dcache.overall_hits::cpu0.data        74123                       # number of overall hits
system.cpu0.dcache.overall_hits::total          74123                       # number of overall hits
system.cpu0.dcache.ReadReq_misses::cpu0.data          161                       # number of ReadReq misses
system.cpu0.dcache.ReadReq_misses::total          161                       # number of ReadReq misses
system.cpu0.dcache.WriteReq_misses::cpu0.data         2353                       # number of WriteReq misses
system.cpu0.dcache.WriteReq_misses::total         2353                       # number of WriteReq misses
system.cpu0.dcache.LoadLockedReq_misses::cpu0.data            3                       # number of LoadLockedReq misses
system.cpu0.dcache.LoadLockedReq_misses::total            3                       # number of LoadLockedReq misses
system.cpu0.dcache.demand_misses::cpu0.data         2514                       # number of demand (read+write) misses
system.cpu0.dcache.demand_misses::total          2514                       # number of demand (read+write) misses
system.cpu0.dcache.overall_misses::cpu0.data         2514                       # number of overall misses
system.cpu0.dcache.overall_misses::total         2514                       # number of overall misses
system.cpu0.dcache.ReadReq_miss_latency::cpu0.data      7898490                       # number of ReadReq miss cycles
system.cpu0.dcache.ReadReq_miss_latency::total      7898490                       # number of ReadReq miss cycles
system.cpu0.dcache.WriteReq_miss_latency::cpu0.data    114995500                       # number of WriteReq miss cycles
system.cpu0.dcache.WriteReq_miss_latency::total    114995500                       # number of WriteReq miss cycles
system.cpu0.dcache.LoadLockedReq_miss_latency::cpu0.data       133500                       # number of LoadLockedReq miss cycles
system.cpu0.dcache.LoadLockedReq_miss_latency::total       133500                       # number of LoadLockedReq miss cycles
system.cpu0.dcache.demand_miss_latency::cpu0.data    122893990                       # number of demand (read+write) miss cycles
system.cpu0.dcache.demand_miss_latency::total    122893990                       # number of demand (read+write) miss cycles
system.cpu0.dcache.overall_miss_latency::cpu0.data    122893990                       # number of overall miss cycles
system.cpu0.dcache.overall_miss_latency::total    122893990                       # number of overall miss cycles
system.cpu0.dcache.ReadReq_accesses::cpu0.data        37614                       # number of ReadReq accesses(hits+misses)
system.cpu0.dcache.ReadReq_accesses::total        37614                       # number of ReadReq accesses(hits+misses)
system.cpu0.dcache.WriteReq_accesses::cpu0.data        39023                       # number of WriteReq accesses(hits+misses)
system.cpu0.dcache.WriteReq_accesses::total        39023                       # number of WriteReq accesses(hits+misses)
system.cpu0.dcache.LoadLockedReq_accesses::cpu0.data           23                       # number of LoadLockedReq accesses(hits+misses)
system.cpu0.dcache.LoadLockedReq_accesses::total           23                       # number of LoadLockedReq accesses(hits+misses)
system.cpu0.dcache.StoreCondReq_accesses::cpu0.data           23                       # number of StoreCondReq accesses(hits+misses)
system.cpu0.dcache.StoreCondReq_accesses::total           23                       # number of StoreCondReq accesses(hits+misses)
system.cpu0.dcache.demand_accesses::cpu0.data        76637                       # number of demand (read+write) accesses
system.cpu0.dcache.demand_accesses::total        76637                       # number of demand (read+write) accesses
system.cpu0.dcache.overall_accesses::cpu0.data        76637                       # number of overall (read+write) accesses
system.cpu0.dcache.overall_accesses::total        76637                       # number of overall (read+write) accesses
system.cpu0.dcache.ReadReq_miss_rate::cpu0.data     0.004280                       # miss rate for ReadReq accesses
system.cpu0.dcache.ReadReq_miss_rate::total     0.004280                       # miss rate for ReadReq accesses
system.cpu0.dcache.WriteReq_miss_rate::cpu0.data     0.060298                       # miss rate for WriteReq accesses
system.cpu0.dcache.WriteReq_miss_rate::total     0.060298                       # miss rate for WriteReq accesses
system.cpu0.dcache.LoadLockedReq_miss_rate::cpu0.data     0.130435                       # miss rate for LoadLockedReq accesses
system.cpu0.dcache.LoadLockedReq_miss_rate::total     0.130435                       # miss rate for LoadLockedReq accesses
system.cpu0.dcache.demand_miss_rate::cpu0.data     0.032804                       # miss rate for demand accesses
system.cpu0.dcache.demand_miss_rate::total     0.032804                       # miss rate for demand accesses
system.cpu0.dcache.overall_miss_rate::cpu0.data     0.032804                       # miss rate for overall accesses
system.cpu0.dcache.overall_miss_rate::total     0.032804                       # miss rate for overall accesses
system.cpu0.dcache.ReadReq_avg_miss_latency::cpu0.data 49058.944099                       # average ReadReq miss latency
system.cpu0.dcache.ReadReq_avg_miss_latency::total 49058.944099                       # average ReadReq miss latency
system.cpu0.dcache.WriteReq_avg_miss_latency::cpu0.data 48871.865703                       # average WriteReq miss latency
system.cpu0.dcache.WriteReq_avg_miss_latency::total 48871.865703                       # average WriteReq miss latency
system.cpu0.dcache.LoadLockedReq_avg_miss_latency::cpu0.data        44500                       # average LoadLockedReq miss latency
system.cpu0.dcache.LoadLockedReq_avg_miss_latency::total        44500                       # average LoadLockedReq miss latency
system.cpu0.dcache.demand_avg_miss_latency::cpu0.data 48883.846460                       # average overall miss latency
system.cpu0.dcache.demand_avg_miss_latency::total 48883.846460                       # average overall miss latency
system.cpu0.dcache.overall_avg_miss_latency::cpu0.data 48883.846460                       # average overall miss latency
system.cpu0.dcache.overall_avg_miss_latency::total 48883.846460                       # average overall miss latency
system.cpu0.dcache.blocked_cycles::no_mshrs            0                       # number of cycles access was blocked
system.cpu0.dcache.blocked_cycles::no_targets            0                       # number of cycles access was blocked
system.cpu0.dcache.blocked::no_mshrs                0                       # number of cycles access was blocked
system.cpu0.dcache.blocked::no_targets              0                       # number of cycles access was blocked
system.cpu0.dcache.avg_blocked_cycles::no_mshrs          nan                       # average number of cycles each access was blocked
system.cpu0.dcache.avg_blocked_cycles::no_targets          nan                       # average number of cycles each access was blocked
system.cpu0.dcache.fast_writes                      0                       # number of fast writes performed
system.cpu0.dcache.cache_copies                     0                       # number of cache copies performed
system.cpu0.dcache.writebacks::writebacks           10                       # number of writebacks
system.cpu0.dcache.writebacks::total               10                       # number of writebacks
system.cpu0.dcache.ReadReq_mshr_hits::cpu0.data           51                       # number of ReadReq MSHR hits
system.cpu0.dcache.ReadReq_mshr_hits::total           51                       # number of ReadReq MSHR hits
system.cpu0.dcache.WriteReq_mshr_hits::cpu0.data         2173                       # number of WriteReq MSHR hits
system.cpu0.dcache.WriteReq_mshr_hits::total         2173                       # number of WriteReq MSHR hits
system.cpu0.dcache.LoadLockedReq_mshr_hits::cpu0.data            3                       # number of LoadLockedReq MSHR hits
system.cpu0.dcache.LoadLockedReq_mshr_hits::total            3                       # number of LoadLockedReq MSHR hits
system.cpu0.dcache.demand_mshr_hits::cpu0.data         2224                       # number of demand (read+write) MSHR hits
system.cpu0.dcache.demand_mshr_hits::total         2224                       # number of demand (read+write) MSHR hits
system.cpu0.dcache.overall_mshr_hits::cpu0.data         2224                       # number of overall MSHR hits
system.cpu0.dcache.overall_mshr_hits::total         2224                       # number of overall MSHR hits
system.cpu0.dcache.ReadReq_mshr_misses::cpu0.data          110                       # number of ReadReq MSHR misses
system.cpu0.dcache.ReadReq_mshr_misses::total          110                       # number of ReadReq MSHR misses
system.cpu0.dcache.WriteReq_mshr_misses::cpu0.data          180                       # number of WriteReq MSHR misses
system.cpu0.dcache.WriteReq_mshr_misses::total          180                       # number of WriteReq MSHR misses
system.cpu0.dcache.demand_mshr_misses::cpu0.data          290                       # number of demand (read+write) MSHR misses
system.cpu0.dcache.demand_mshr_misses::total          290                       # number of demand (read+write) MSHR misses
system.cpu0.dcache.overall_mshr_misses::cpu0.data          290                       # number of overall MSHR misses
system.cpu0.dcache.overall_mshr_misses::total          290                       # number of overall MSHR misses
system.cpu0.dcache.ReadReq_mshr_miss_latency::cpu0.data      5289006                       # number of ReadReq MSHR miss cycles
system.cpu0.dcache.ReadReq_mshr_miss_latency::total      5289006                       # number of ReadReq MSHR miss cycles
system.cpu0.dcache.WriteReq_mshr_miss_latency::cpu0.data      9945000                       # number of WriteReq MSHR miss cycles
system.cpu0.dcache.WriteReq_mshr_miss_latency::total      9945000                       # number of WriteReq MSHR miss cycles
system.cpu0.dcache.demand_mshr_miss_latency::cpu0.data     15234006                       # number of demand (read+write) MSHR miss cycles
system.cpu0.dcache.demand_mshr_miss_latency::total     15234006                       # number of demand (read+write) MSHR miss cycles
system.cpu0.dcache.overall_mshr_miss_latency::cpu0.data     15234006                       # number of overall MSHR miss cycles
system.cpu0.dcache.overall_mshr_miss_latency::total     15234006                       # number of overall MSHR miss cycles
system.cpu0.dcache.ReadReq_mshr_miss_rate::cpu0.data     0.002924                       # mshr miss rate for ReadReq accesses
system.cpu0.dcache.ReadReq_mshr_miss_rate::total     0.002924                       # mshr miss rate for ReadReq accesses
system.cpu0.dcache.WriteReq_mshr_miss_rate::cpu0.data     0.004613                       # mshr miss rate for WriteReq accesses
system.cpu0.dcache.WriteReq_mshr_miss_rate::total     0.004613                       # mshr miss rate for WriteReq accesses
system.cpu0.dcache.demand_mshr_miss_rate::cpu0.data     0.003784                       # mshr miss rate for demand accesses
system.cpu0.dcache.demand_mshr_miss_rate::total     0.003784                       # mshr miss rate for demand accesses
system.cpu0.dcache.overall_mshr_miss_rate::cpu0.data     0.003784                       # mshr miss rate for overall accesses
system.cpu0.dcache.overall_mshr_miss_rate::total     0.003784                       # mshr miss rate for overall accesses
system.cpu0.dcache.ReadReq_avg_mshr_miss_latency::cpu0.data 48081.872727                       # average ReadReq mshr miss latency
system.cpu0.dcache.ReadReq_avg_mshr_miss_latency::total 48081.872727                       # average ReadReq mshr miss latency
system.cpu0.dcache.WriteReq_avg_mshr_miss_latency::cpu0.data        55250                       # average WriteReq mshr miss latency
system.cpu0.dcache.WriteReq_avg_mshr_miss_latency::total        55250                       # average WriteReq mshr miss latency
system.cpu0.dcache.demand_avg_mshr_miss_latency::cpu0.data 52531.055172                       # average overall mshr miss latency
system.cpu0.dcache.demand_avg_mshr_miss_latency::total 52531.055172                       # average overall mshr miss latency
system.cpu0.dcache.overall_avg_mshr_miss_latency::cpu0.data 52531.055172                       # average overall mshr miss latency
system.cpu0.dcache.overall_avg_mshr_miss_latency::total 52531.055172                       # average overall mshr miss latency
system.cpu0.dcache.no_allocate_misses               0                       # Number of misses that were no-allocate
system.cpu0.icache.tags.replacements               51                       # number of replacements
system.cpu0.icache.tags.tagsinuse          254.942354                       # Cycle average of tags in use
system.cpu0.icache.tags.total_refs               1694                       # Total number of references to valid blocks.
system.cpu0.icache.tags.sampled_refs              340                       # Sample count of references to valid blocks.
system.cpu0.icache.tags.avg_refs             4.982353                       # Average number of references to valid blocks.
system.cpu0.icache.tags.warmup_cycle                0                       # Cycle when the warmup percentage was hit.
system.cpu0.icache.tags.occ_blocks::cpu0.inst   254.942354                       # Average occupied blocks per requestor
system.cpu0.icache.tags.occ_percent::cpu0.inst     0.497934                       # Average percentage of cache occupancy
system.cpu0.icache.tags.occ_percent::total     0.497934                       # Average percentage of cache occupancy
system.cpu0.icache.tags.occ_task_id_blocks::1024          289                       # Occupied blocks per task id
system.cpu0.icache.tags.age_task_id_blocks_1024::1          289                       # Occupied blocks per task id
system.cpu0.icache.tags.occ_task_id_percent::1024     0.564453                       # Percentage of cache occupancy per task id
system.cpu0.icache.tags.tag_accesses             4524                       # Number of tag accesses
system.cpu0.icache.tags.data_accesses            4524                       # Number of data accesses
system.cpu0.icache.ReadReq_hits::cpu0.inst         1694                       # number of ReadReq hits
system.cpu0.icache.ReadReq_hits::total           1694                       # number of ReadReq hits
system.cpu0.icache.demand_hits::cpu0.inst         1694                       # number of demand (read+write) hits
system.cpu0.icache.demand_hits::total            1694                       # number of demand (read+write) hits
system.cpu0.icache.overall_hits::cpu0.inst         1694                       # number of overall hits
system.cpu0.icache.overall_hits::total           1694                       # number of overall hits
system.cpu0.icache.ReadReq_misses::cpu0.inst          398                       # number of ReadReq misses
system.cpu0.icache.ReadReq_misses::total          398                       # number of ReadReq misses
system.cpu0.icache.demand_misses::cpu0.inst          398                       # number of demand (read+write) misses
system.cpu0.icache.demand_misses::total           398                       # number of demand (read+write) misses
system.cpu0.icache.overall_misses::cpu0.inst          398                       # number of overall misses
system.cpu0.icache.overall_misses::total          398                       # number of overall misses
system.cpu0.icache.ReadReq_miss_latency::cpu0.inst     20893998                       # number of ReadReq miss cycles
system.cpu0.icache.ReadReq_miss_latency::total     20893998                       # number of ReadReq miss cycles
system.cpu0.icache.demand_miss_latency::cpu0.inst     20893998                       # number of demand (read+write) miss cycles
system.cpu0.icache.demand_miss_latency::total     20893998                       # number of demand (read+write) miss cycles
system.cpu0.icache.overall_miss_latency::cpu0.inst     20893998                       # number of overall miss cycles
system.cpu0.icache.overall_miss_latency::total     20893998                       # number of overall miss cycles
system.cpu0.icache.ReadReq_accesses::cpu0.inst         2092                       # number of ReadReq accesses(hits+misses)
system.cpu0.icache.ReadReq_accesses::total         2092                       # number of ReadReq accesses(hits+misses)
system.cpu0.icache.demand_accesses::cpu0.inst         2092                       # number of demand (read+write) accesses
system.cpu0.icache.demand_accesses::total         2092                       # number of demand (read+write) accesses
system.cpu0.icache.overall_accesses::cpu0.inst         2092                       # number of overall (read+write) accesses
system.cpu0.icache.overall_accesses::total         2092                       # number of overall (read+write) accesses
system.cpu0.icache.ReadReq_miss_rate::cpu0.inst     0.190249                       # miss rate for ReadReq accesses
system.cpu0.icache.ReadReq_miss_rate::total     0.190249                       # miss rate for ReadReq accesses
system.cpu0.icache.demand_miss_rate::cpu0.inst     0.190249                       # miss rate for demand accesses
system.cpu0.icache.demand_miss_rate::total     0.190249                       # miss rate for demand accesses
system.cpu0.icache.overall_miss_rate::cpu0.inst     0.190249                       # miss rate for overall accesses
system.cpu0.icache.overall_miss_rate::total     0.190249                       # miss rate for overall accesses
system.cpu0.icache.ReadReq_avg_miss_latency::cpu0.inst 52497.482412                       # average ReadReq miss latency
system.cpu0.icache.ReadReq_avg_miss_latency::total 52497.482412                       # average ReadReq miss latency
system.cpu0.icache.demand_avg_miss_latency::cpu0.inst 52497.482412                       # average overall miss latency
system.cpu0.icache.demand_avg_miss_latency::total 52497.482412                       # average overall miss latency
system.cpu0.icache.overall_avg_miss_latency::cpu0.inst 52497.482412                       # average overall miss latency
system.cpu0.icache.overall_avg_miss_latency::total 52497.482412                       # average overall miss latency
system.cpu0.icache.blocked_cycles::no_mshrs           11                       # number of cycles access was blocked
system.cpu0.icache.blocked_cycles::no_targets            0                       # number of cycles access was blocked
system.cpu0.icache.blocked::no_mshrs                1                       # number of cycles access was blocked
system.cpu0.icache.blocked::no_targets              0                       # number of cycles access was blocked
system.cpu0.icache.avg_blocked_cycles::no_mshrs           11                       # average number of cycles each access was blocked
system.cpu0.icache.avg_blocked_cycles::no_targets          nan                       # average number of cycles each access was blocked
system.cpu0.icache.fast_writes                      0                       # number of fast writes performed
system.cpu0.icache.cache_copies                     0                       # number of cache copies performed
system.cpu0.icache.ReadReq_mshr_hits::cpu0.inst           58                       # number of ReadReq MSHR hits
system.cpu0.icache.ReadReq_mshr_hits::total           58                       # number of ReadReq MSHR hits
system.cpu0.icache.demand_mshr_hits::cpu0.inst           58                       # number of demand (read+write) MSHR hits
system.cpu0.icache.demand_mshr_hits::total           58                       # number of demand (read+write) MSHR hits
system.cpu0.icache.overall_mshr_hits::cpu0.inst           58                       # number of overall MSHR hits
system.cpu0.icache.overall_mshr_hits::total           58                       # number of overall MSHR hits
system.cpu0.icache.ReadReq_mshr_misses::cpu0.inst          340                       # number of ReadReq MSHR misses
system.cpu0.icache.ReadReq_mshr_misses::total          340                       # number of ReadReq MSHR misses
system.cpu0.icache.demand_mshr_misses::cpu0.inst          340                       # number of demand (read+write) MSHR misses
system.cpu0.icache.demand_mshr_misses::total          340                       # number of demand (read+write) MSHR misses
system.cpu0.icache.overall_mshr_misses::cpu0.inst          340                       # number of overall MSHR misses
system.cpu0.icache.overall_mshr_misses::total          340                       # number of overall MSHR misses
system.cpu0.icache.ReadReq_mshr_miss_latency::cpu0.inst     17993502                       # number of ReadReq MSHR miss cycles
system.cpu0.icache.ReadReq_mshr_miss_latency::total     17993502                       # number of ReadReq MSHR miss cycles
system.cpu0.icache.demand_mshr_miss_latency::cpu0.inst     17993502                       # number of demand (read+write) MSHR miss cycles
system.cpu0.icache.demand_mshr_miss_latency::total     17993502                       # number of demand (read+write) MSHR miss cycles
system.cpu0.icache.overall_mshr_miss_latency::cpu0.inst     17993502                       # number of overall MSHR miss cycles
system.cpu0.icache.overall_mshr_miss_latency::total     17993502                       # number of overall MSHR miss cycles
system.cpu0.icache.ReadReq_mshr_miss_rate::cpu0.inst     0.162524                       # mshr miss rate for ReadReq accesses
system.cpu0.icache.ReadReq_mshr_miss_rate::total     0.162524                       # mshr miss rate for ReadReq accesses
system.cpu0.icache.demand_mshr_miss_rate::cpu0.inst     0.162524                       # mshr miss rate for demand accesses
system.cpu0.icache.demand_mshr_miss_rate::total     0.162524                       # mshr miss rate for demand accesses
system.cpu0.icache.overall_mshr_miss_rate::cpu0.inst     0.162524                       # mshr miss rate for overall accesses
system.cpu0.icache.overall_mshr_miss_rate::total     0.162524                       # mshr miss rate for overall accesses
system.cpu0.icache.ReadReq_avg_mshr_miss_latency::cpu0.inst 52922.064706                       # average ReadReq mshr miss latency
system.cpu0.icache.ReadReq_avg_mshr_miss_latency::total 52922.064706                       # average ReadReq mshr miss latency
system.cpu0.icache.demand_avg_mshr_miss_latency::cpu0.inst 52922.064706                       # average overall mshr miss latency
system.cpu0.icache.demand_avg_mshr_miss_latency::total 52922.064706                       # average overall mshr miss latency
system.cpu0.icache.overall_avg_mshr_miss_latency::cpu0.inst 52922.064706                       # average overall mshr miss latency
system.cpu0.icache.overall_avg_mshr_miss_latency::total 52922.064706                       # average overall mshr miss latency
system.cpu0.icache.no_allocate_misses               0                       # Number of misses that were no-allocate
system.cpu1.branchPred.lookups                  20153                       # Number of BP lookups
system.cpu1.branchPred.condPredicted            12487                       # Number of conditional branches predicted
system.cpu1.branchPred.condIncorrect             2084                       # Number of conditional branches incorrect
system.cpu1.branchPred.BTBLookups                7362                       # Number of BTB lookups
system.cpu1.branchPred.BTBHits                   6124                       # Number of BTB hits
[...]
system.l2.ReadReq_mshr_miss_latency::total     27566000                       # number of ReadReq MSHR miss cycles
system.l2.UpgradeReq_mshr_miss_latency::cpu1.data       285000                       # number of UpgradeReq MSHR miss cycles
system.l2.UpgradeReq_mshr_miss_latency::cpu2.data      1539000                       # number of UpgradeReq MSHR miss cycles
system.l2.UpgradeReq_mshr_miss_latency::total      1824000                       # number of UpgradeReq MSHR miss cycles
system.l2.SCUpgradeReq_mshr_miss_latency::cpu1.data       163500                       # number of SCUpgradeReq MSHR miss cycles
system.l2.SCUpgradeReq_mshr_miss_latency::cpu2.data       407498                       # number of SCUpgradeReq MSHR miss cycles
system.l2.SCUpgradeReq_mshr_miss_latency::total       570998                       # number of SCUpgradeReq MSHR miss cycles
system.l2.ReadExReq_mshr_miss_latency::cpu0.data      7341500                       # number of ReadExReq MSHR miss cycles
system.l2.ReadExReq_mshr_miss_latency::cpu1.data      2111500                       # number of ReadExReq MSHR miss cycles
system.l2.ReadExReq_mshr_miss_latency::cpu2.data      2185500                       # number of ReadExReq MSHR miss cycles
system.l2.ReadExReq_mshr_miss_latency::total     11638500                       # number of ReadExReq MSHR miss cycles
system.l2.demand_mshr_miss_latency::cpu0.inst     13046000                       # number of demand (read+write) MSHR miss cycles
system.l2.demand_mshr_miss_latency::cpu0.data     10886000                       # number of demand (read+write) MSHR miss cycles
system.l2.demand_mshr_miss_latency::cpu1.inst      4443000                       # number of demand (read+write) MSHR miss cycles
system.l2.demand_mshr_miss_latency::cpu1.data      2949500                       # number of demand (read+write) MSHR miss cycles
system.l2.demand_mshr_miss_latency::cpu2.inst      4938500                       # number of demand (read+write) MSHR miss cycles
system.l2.demand_mshr_miss_latency::cpu2.data      2941500                       # number of demand (read+write) MSHR miss cycles
system.l2.demand_mshr_miss_latency::total     39204500                       # number of demand (read+write) MSHR miss cycles
system.l2.overall_mshr_miss_latency::cpu0.inst     13046000                       # number of overall MSHR miss cycles
system.l2.overall_mshr_miss_latency::cpu0.data     10886000                       # number of overall MSHR miss cycles
system.l2.overall_mshr_miss_latency::cpu1.inst      4443000                       # number of overall MSHR miss cycles
system.l2.overall_mshr_miss_latency::cpu1.data      2949500                       # number of overall MSHR miss cycles
system.l2.overall_mshr_miss_latency::cpu2.inst      4938500                       # number of overall MSHR miss cycles
system.l2.overall_mshr_miss_latency::cpu2.data      2941500                       # number of overall MSHR miss cycles
system.l2.overall_mshr_miss_latency::total     39204500                       # number of overall MSHR miss cycles
system.l2.ReadReq_mshr_miss_rate::cpu0.inst     0.935294                       # mshr miss rate for ReadReq accesses
system.l2.ReadReq_mshr_miss_rate::cpu0.data     0.763636                       # mshr miss rate for ReadReq accesses
system.l2.ReadReq_mshr_miss_rate::cpu1.inst     0.240088                       # mshr miss rate for ReadReq accesses
system.l2.ReadReq_mshr_miss_rate::cpu1.data     0.425532                       # mshr miss rate for ReadReq accesses
system.l2.ReadReq_mshr_miss_rate::cpu2.inst     0.284706                       # mshr miss rate for ReadReq accesses
system.l2.ReadReq_mshr_miss_rate::cpu2.data     0.391304                       # mshr miss rate for ReadReq accesses
system.l2.ReadReq_mshr_miss_rate::total      0.471167                       # mshr miss rate for ReadReq accesses
system.l2.UpgradeReq_mshr_miss_rate::cpu1.data     0.875000                       # mshr miss rate for UpgradeReq accesses
system.l2.UpgradeReq_mshr_miss_rate::cpu2.data     0.974359                       # mshr miss rate for UpgradeReq accesses
system.l2.UpgradeReq_mshr_miss_rate::total     0.957447                       # mshr miss rate for UpgradeReq accesses
system.l2.SCUpgradeReq_mshr_miss_rate::cpu1.data     0.571429                       # mshr miss rate for SCUpgradeReq accesses
system.l2.SCUpgradeReq_mshr_miss_rate::cpu2.data            1                       # mshr miss rate for SCUpgradeReq accesses
system.l2.SCUpgradeReq_mshr_miss_rate::total     0.823529                       # mshr miss rate for SCUpgradeReq accesses
system.l2.ReadExReq_mshr_miss_rate::cpu0.data            1                       # mshr miss rate for ReadExReq accesses
system.l2.ReadExReq_mshr_miss_rate::cpu1.data            1                       # mshr miss rate for ReadExReq accesses
system.l2.ReadExReq_mshr_miss_rate::cpu2.data            1                       # mshr miss rate for ReadExReq accesses
system.l2.ReadExReq_mshr_miss_rate::total            1                       # mshr miss rate for ReadExReq accesses
system.l2.demand_mshr_miss_rate::cpu0.inst     0.935294                       # mshr miss rate for demand accesses
system.l2.demand_mshr_miss_rate::cpu0.data     0.910345                       # mshr miss rate for demand accesses
system.l2.demand_mshr_miss_rate::cpu1.inst     0.240088                       # mshr miss rate for demand accesses
system.l2.demand_mshr_miss_rate::cpu1.data     0.724490                       # mshr miss rate for demand accesses
system.l2.demand_mshr_miss_rate::cpu2.inst     0.284706                       # mshr miss rate for demand accesses
system.l2.demand_mshr_miss_rate::cpu2.data     0.717172                       # mshr miss rate for demand accesses
system.l2.demand_mshr_miss_rate::total       0.559203                       # mshr miss rate for demand accesses
system.l2.overall_mshr_miss_rate::cpu0.inst     0.935294                       # mshr miss rate for overall accesses
system.l2.overall_mshr_miss_rate::cpu0.data     0.910345                       # mshr miss rate for overall accesses
system.l2.overall_mshr_miss_rate::cpu1.inst     0.240088                       # mshr miss rate for overall accesses
system.l2.overall_mshr_miss_rate::cpu1.data     0.724490                       # mshr miss rate for overall accesses
system.l2.overall_mshr_miss_rate::cpu2.inst     0.284706                       # mshr miss rate for overall accesses
system.l2.overall_mshr_miss_rate::cpu2.data     0.717172                       # mshr miss rate for overall accesses
system.l2.overall_mshr_miss_rate::total      0.559203                       # mshr miss rate for overall accesses
system.l2.ReadReq_avg_mshr_miss_latency::cpu0.inst 41025.157233                       # average ReadReq mshr miss latency
system.l2.ReadReq_avg_mshr_miss_latency::cpu0.data 42196.428571                       # average ReadReq mshr miss latency
system.l2.ReadReq_avg_mshr_miss_latency::cpu1.inst 40761.467890                       # average ReadReq mshr miss latency
system.l2.ReadReq_avg_mshr_miss_latency::cpu1.data        41900                       # average ReadReq mshr miss latency
system.l2.ReadReq_avg_mshr_miss_latency::cpu2.inst 40814.049587                       # average ReadReq mshr miss latency
system.l2.ReadReq_avg_mshr_miss_latency::cpu2.data        42000                       # average ReadReq mshr miss latency
system.l2.ReadReq_avg_mshr_miss_latency::total 41143.283582                       # average ReadReq mshr miss latency
system.l2.UpgradeReq_avg_mshr_miss_latency::cpu1.data 40714.285714                       # average UpgradeReq mshr miss latency
system.l2.UpgradeReq_avg_mshr_miss_latency::cpu2.data        40500                       # average UpgradeReq mshr miss latency
system.l2.UpgradeReq_avg_mshr_miss_latency::total 40533.333333                       # average UpgradeReq mshr miss latency
system.l2.SCUpgradeReq_avg_mshr_miss_latency::cpu1.data        40875                       # average SCUpgradeReq mshr miss latency
system.l2.SCUpgradeReq_avg_mshr_miss_latency::cpu2.data 40749.800000                       # average SCUpgradeReq mshr miss latency
system.l2.SCUpgradeReq_avg_mshr_miss_latency::total 40785.571429                       # average SCUpgradeReq mshr miss latency
system.l2.ReadExReq_avg_mshr_miss_latency::cpu0.data 40786.111111                       # average ReadExReq mshr miss latency
system.l2.ReadExReq_avg_mshr_miss_latency::cpu1.data 41401.960784                       # average ReadExReq mshr miss latency
system.l2.ReadExReq_avg_mshr_miss_latency::cpu2.data 41235.849057                       # average ReadExReq mshr miss latency
system.l2.ReadExReq_avg_mshr_miss_latency::total 40980.633803                       # average ReadExReq mshr miss latency
system.l2.demand_avg_mshr_miss_latency::cpu0.inst 41025.157233                       # average overall mshr miss latency
system.l2.demand_avg_mshr_miss_latency::cpu0.data 41234.848485                       # average overall mshr miss latency
system.l2.demand_avg_mshr_miss_latency::cpu1.inst 40761.467890                       # average overall mshr miss latency
system.l2.demand_avg_mshr_miss_latency::cpu1.data 41542.253521                       # average overall mshr miss latency
system.l2.demand_avg_mshr_miss_latency::cpu2.inst 40814.049587                       # average overall mshr miss latency
system.l2.demand_avg_mshr_miss_latency::cpu2.data 41429.577465                       # average overall mshr miss latency
system.l2.demand_avg_mshr_miss_latency::total 41094.863732                       # average overall mshr miss latency
system.l2.overall_avg_mshr_miss_latency::cpu0.inst 41025.157233                       # average overall mshr miss latency
system.l2.overall_avg_mshr_miss_latency::cpu0.data 41234.848485                       # average overall mshr miss latency
system.l2.overall_avg_mshr_miss_latency::cpu1.inst 40761.467890                       # average overall mshr miss latency
system.l2.overall_avg_mshr_miss_latency::cpu1.data 41542.253521                       # average overall mshr miss latency
system.l2.overall_avg_mshr_miss_latency::cpu2.inst 40814.049587                       # average overall mshr miss latency
system.l2.overall_avg_mshr_miss_latency::cpu2.data 41429.577465                       # average overall mshr miss latency
system.l2.overall_avg_mshr_miss_latency::total 41094.863732                       # average overall mshr miss latency
system.l2.no_allocate_misses                        0                       # Number of misses that were no-allocate
system.membus.trans_dist::ReadReq                 670                       # Transaction distribution
system.membus.trans_dist::ReadResp                670                       # Transaction distribution
system.membus.trans_dist::UpgradeReq              164                       # Transaction distribution
system.membus.trans_dist::SCUpgradeReq            139                       # Transaction distribution
system.membus.trans_dist::UpgradeResp              59                       # Transaction distribution
system.membus.trans_dist::ReadExReq               284                       # Transaction distribution
system.membus.trans_dist::ReadExResp              284                       # Transaction distribution
system.membus.pkt_count_system.l2.mem_side::system.physmem.port         2270                       # Packet count per connected master and slave (bytes)
system.membus.pkt_count::total                   2270                       # Packet count per connected master and slave (bytes)
system.membus.pkt_size_system.l2.mem_side::system.physmem.port        61056                       # Cumulative packet size per connected master and slave (bytes)
system.membus.pkt_size::total                   61056                       # Cumulative packet size per connected master and slave (bytes)
system.membus.snoops                              244                       # Total snoops (count)
system.membus.snoop_fanout::samples              1396                       # Request fanout histogram
system.membus.snoop_fanout::mean                    0                       # Request fanout histogram
system.membus.snoop_fanout::stdev                   0                       # Request fanout histogram
system.membus.snoop_fanout::underflows              0      0.00%      0.00% # Request fanout histogram
system.membus.snoop_fanout::0                    1396    100.00%    100.00% # Request fanout histogram
system.membus.snoop_fanout::1                       0      0.00%    100.00% # Request fanout histogram
system.membus.snoop_fanout::overflows               0      0.00%    100.00% # Request fanout histogram
system.membus.snoop_fanout::min_value               0                       # Request fanout histogram
system.membus.snoop_fanout::max_value               0                       # Request fanout histogram
system.membus.snoop_fanout::total                1396                       # Request fanout histogram
system.membus.reqLayer0.occupancy             1697717                       # Layer occupancy (ticks)
system.membus.reqLayer0.utilization               1.7                       # Layer utilization (%)
system.membus.respLayer1.occupancy            5253501                       # Layer occupancy (ticks)
system.membus.respLayer1.utilization              5.3                       # Layer utilization (%)
system.tol2bus.trans_dist::ReadReq               1758                       # Transaction distribution
system.tol2bus.trans_dist::ReadResp              1758                       # Transaction distribution
system.tol2bus.trans_dist::Writeback               17                       # Transaction distribution
system.tol2bus.trans_dist::UpgradeReq             166                       # Transaction distribution
system.tol2bus.trans_dist::SCUpgradeReq           142                       # Transaction distribution
system.tol2bus.trans_dist::UpgradeResp            308                       # Transaction distribution
system.tol2bus.trans_dist::SCUpgradeFailReq            2                       # Transaction distribution
system.tol2bus.trans_dist::UpgradeFailResp            2                       # Transaction distribution
system.tol2bus.trans_dist::ReadExReq              285                       # Transaction distribution
system.tol2bus.trans_dist::ReadExResp             285                       # Transaction distribution
system.tol2bus.pkt_count_system.cpu0.icache.mem_side::system.l2.cpu_side          680                       # Packet count per connected master and slave (bytes)
system.tol2bus.pkt_count_system.cpu0.dcache.mem_side::system.l2.cpu_side          590                       # Packet count per connected master and slave (bytes)
system.tol2bus.pkt_count_system.cpu1.icache.mem_side::system.l2.cpu_side          908                       # Packet count per connected master and slave (bytes)
system.tol2bus.pkt_count_system.cpu1.dcache.mem_side::system.l2.cpu_side          534                       # Packet count per connected master and slave (bytes)
system.tol2bus.pkt_count_system.cpu2.icache.mem_side::system.l2.cpu_side          850                       # Packet count per connected master and slave (bytes)
system.tol2bus.pkt_count_system.cpu2.dcache.mem_side::system.l2.cpu_side          578                       # Packet count per connected master and slave (bytes)
system.tol2bus.pkt_count::total                  4140                       # Packet count per connected master and slave (bytes)
system.tol2bus.pkt_size_system.cpu0.icache.mem_side::system.l2.cpu_side        21760                       # Cumulative packet size per connected master and slave (bytes)
system.tol2bus.pkt_size_system.cpu0.dcache.mem_side::system.l2.cpu_side        19200                       # Cumulative packet size per connected master and slave (bytes)
system.tol2bus.pkt_size_system.cpu1.icache.mem_side::system.l2.cpu_side        29056                       # Cumulative packet size per connected master and slave (bytes)
system.tol2bus.pkt_size_system.cpu1.dcache.mem_side::system.l2.cpu_side         6592                       # Cumulative packet size per connected master and slave (bytes)
system.tol2bus.pkt_size_system.cpu2.icache.mem_side::system.l2.cpu_side        27200                       # Cumulative packet size per connected master and slave (bytes)
system.tol2bus.pkt_size_system.cpu2.dcache.mem_side::system.l2.cpu_side         6464                       # Cumulative packet size per connected master and slave (bytes)
system.tol2bus.pkt_size::total                 110272                       # Cumulative packet size per connected master and slave (bytes)
system.tol2bus.snoops                             583                       # Total snoops (count)
system.tol2bus.snoop_fanout::samples             2370                       # Request fanout histogram
system.tol2bus.snoop_fanout::mean                   5                       # Request fanout histogram
system.tol2bus.snoop_fanout::stdev                  0                       # Request fanout histogram
system.tol2bus.snoop_fanout::underflows             0      0.00%      0.00% # Request fanout histogram
system.tol2bus.snoop_fanout::0                      0      0.00%      0.00% # Request fanout histogram
system.tol2bus.snoop_fanout::1                      0      0.00%      0.00% # Request fanout histogram
system.tol2bus.snoop_fanout::2                      0      0.00%      0.00% # Request fanout histogram
system.tol2bus.snoop_fanout::3                      0      0.00%      0.00% # Request fanout histogram
system.tol2bus.snoop_fanout::4                      0      0.00%      0.00% # Request fanout histogram
system.tol2bus.snoop_fanout::5                   2370    100.00%    100.00% # Request fanout histogram
system.tol2bus.snoop_fanout::6                      0      0.00%    100.00% # Request fanout histogram
system.tol2bus.snoop_fanout::overflows              0      0.00%    100.00% # Request fanout histogram
system.tol2bus.snoop_fanout::min_value              5                       # Request fanout histogram
system.tol2bus.snoop_fanout::max_value              5                       # Request fanout histogram
system.tol2bus.snoop_fanout::total               2370                       # Request fanout histogram
system.tol2bus.reqLayer0.occupancy            1202499                       # Layer occupancy (ticks)
system.tol2bus.reqLayer0.utilization              1.2                       # Layer utilization (%)
system.tol2bus.respLayer0.occupancy            510998                       # Layer occupancy (ticks)
system.tol2bus.respLayer0.utilization             0.5                       # Layer utilization (%)
system.tol2bus.respLayer1.occupancy            437994                       # Layer occupancy (ticks)
system.tol2bus.respLayer1.utilization             0.4                       # Layer utilization (%)
system.tol2bus.respLayer4.occupancy            698465                       # Layer occupancy (ticks)
system.tol2bus.respLayer4.utilization             0.7                       # Layer utilization (%)
system.tol2bus.respLayer5.occupancy            491000                       # Layer occupancy (ticks)
system.tol2bus.respLayer5.utilization             0.5                       # Layer utilization (%)
system.tol2bus.respLayer8.occupancy            664446                       # Layer occupancy (ticks)
system.tol2bus.respLayer8.utilization             0.7                       # Layer utilization (%)
system.tol2bus.respLayer9.occupancy            471491                       # Layer occupancy (ticks)
system.tol2bus.respLayer9.utilization             0.5                       # Layer utilization (%)

---------- End Simulation Statistics   ----------
