
---------- Begin Simulation Statistics ----------
sim_seconds                                  0.017542                       # Number of seconds simulated
sim_ticks                                 17541750000                       # Number of ticks simulated
final_tick                                17541750000                       # Number of ticks from beginning of simulation (restored from checkpoints and never reset)
sim_freq                                 1000000000000                       # Frequency of simulated ticks
host_inst_rate                                 150712                       # Simulator instruction rate (inst/s)
host_op_rate                                   153809                       # Simulator op (including micro ops) rate (op/s)
host_tick_rate                               22627432                       # Simulator tick rate (ticks/s)
host_mem_usage                                 742620                       # Number of bytes of host memory used
host_seconds                                   775.24                       # Real time elapsed on the host
sim_insts                                   116838743                       # Number of instructions simulated
sim_ops                                     119239251                       # Number of ops (including micro ops) simulated
system.voltage_domain.voltage                       1                       # Voltage in Volts
system.clk_domain.clock                          1000                       # Clock period in ticks
system.physmem.bytes_read::cpu0.inst            22592                       # Number of bytes read from this memory
system.physmem.bytes_read::cpu0.data            18368                       # Number of bytes read from this memory
system.physmem.bytes_read::cpu1.inst             2368                       # Number of bytes read from this memory
system.physmem.bytes_read::cpu1.data            24960                       # Number of bytes read from this memory
system.physmem.bytes_read::cpu2.inst             5120                       # Number of bytes read from this memory
system.physmem.bytes_read::cpu2.data            67072                       # Number of bytes read from this memory
system.physmem.bytes_read::cpu3.inst              832                       # Number of bytes read from this memory
system.physmem.bytes_read::cpu3.data            68480                       # Number of bytes read from this memory
system.physmem.bytes_read::cpu4.inst             3392                       # Number of bytes read from this memory
system.physmem.bytes_read::cpu4.data           140224                       # Number of bytes read from this memory
system.physmem.bytes_read::cpu5.inst             2176                       # Number of bytes read from this memory
system.physmem.bytes_read::cpu5.data           131328                       # Number of bytes read from this memory
system.physmem.bytes_read::cpu6.inst             1280                       # Number of bytes read from this memory
system.physmem.bytes_read::cpu6.data           127744                       # Number of bytes read from this memory
system.physmem.bytes_read::cpu7.inst             3456                       # Number of bytes read from this memory
system.physmem.bytes_read::cpu7.data           105536                       # Number of bytes read from this memory
system.physmem.bytes_read::cpu8.inst             4672                       # Number of bytes read from this memory
system.physmem.bytes_read::cpu8.data            37120                       # Number of bytes read from this memory
system.physmem.bytes_read::total               766720                       # Number of bytes read from this memory
system.physmem.bytes_inst_read::cpu0.inst        22592                       # Number of instructions bytes read from this memory
system.physmem.bytes_inst_read::cpu1.inst         2368                       # Number of instructions bytes read from this memory
system.physmem.bytes_inst_read::cpu2.inst         5120                       # Number of instructions bytes read from this memory
system.physmem.bytes_inst_read::cpu3.inst          832                       # Number of instructions bytes read from this memory
system.physmem.bytes_inst_read::cpu4.inst         3392                       # Number of instructions bytes read from this memory
system.physmem.bytes_inst_read::cpu5.inst         2176                       # Number of instructions bytes read from this memory
system.physmem.bytes_inst_read::cpu6.inst         1280                       # Number of instructions bytes read from this memory
system.physmem.bytes_inst_read::cpu7.inst         3456                       # Number of instructions bytes read from this memory
system.physmem.bytes_inst_read::cpu8.inst         4672                       # Number of instructions bytes read from this memory
system.physmem.bytes_inst_read::total           45888                       # Number of instructions bytes read from this memory
system.physmem.bytes_written::writebacks        12992                       # Number of bytes written to this memory
system.physmem.bytes_written::total             12992                       # Number of bytes written to this memory
system.physmem.num_reads::cpu0.inst               353                       # Number of read requests responded to by this memory
system.physmem.num_reads::cpu0.data               287                       # Number of read requests responded to by this memory
system.physmem.num_reads::cpu1.inst                37                       # Number of read requests responded to by this memory
system.physmem.num_reads::cpu1.data               390                       # Number of read requests responded to by this memory
system.physmem.num_reads::cpu2.inst                80                       # Number of read requests responded to by this memory
system.physmem.num_reads::cpu2.data              1048                       # Number of read requests responded to by this memory
system.physmem.num_reads::cpu3.inst                13                       # Number of read requests responded to by this memory
system.physmem.num_reads::cpu3.data              1070                       # Number of read requests responded to by this memory
system.physmem.num_reads::cpu4.inst                53                       # Number of read requests responded to by this memory
system.physmem.num_reads::cpu4.data              2191                       # Number of read requests responded to by this memory
system.physmem.num_reads::cpu5.inst                34                       # Number of read requests responded to by this memory
system.physmem.num_reads::cpu5.data              2052                       # Number of read requests responded to by this memory
system.physmem.num_reads::cpu6.inst                20                       # Number of read requests responded to by this memory
system.physmem.num_reads::cpu6.data              1996                       # Number of read requests responded to by this memory
system.physmem.num_reads::cpu7.inst                54                       # Number of read requests responded to by this memory
system.physmem.num_reads::cpu7.data              1649                       # Number of read requests responded to by this memory
system.physmem.num_reads::cpu8.inst                73                       # Number of read requests responded to by this memory
system.physmem.num_reads::cpu8.data               580                       # Number of read requests responded to by this memory
system.physmem.num_reads::total                 11980                       # Number of read requests responded to by this memory
system.physmem.num_writes::writebacks             203                       # Number of write requests responded to by this memory
system.physmem.num_writes::total                  203                       # Number of write requests responded to by this memory
system.physmem.bw_read::cpu0.inst             1287899                       # Total read bandwidth from this memory (bytes/s)
system.physmem.bw_read::cpu0.data             1047102                       # Total read bandwidth from this memory (bytes/s)
system.physmem.bw_read::cpu1.inst              134992                       # Total read bandwidth from this memory (bytes/s)
system.physmem.bw_read::cpu1.data             1422891                       # Total read bandwidth from this memory (bytes/s)
system.physmem.bw_read::cpu2.inst              291875                       # Total read bandwidth from this memory (bytes/s)
system.physmem.bw_read::cpu2.data             3823564                       # Total read bandwidth from this memory (bytes/s)
system.physmem.bw_read::cpu3.inst               47430                       # Total read bandwidth from this memory (bytes/s)
system.physmem.bw_read::cpu3.data             3903829                       # Total read bandwidth from this memory (bytes/s)
system.physmem.bw_read::cpu4.inst              193367                       # Total read bandwidth from this memory (bytes/s)
system.physmem.bw_read::cpu4.data             7993729                       # Total read bandwidth from this memory (bytes/s)
system.physmem.bw_read::cpu5.inst              124047                       # Total read bandwidth from this memory (bytes/s)
system.physmem.bw_read::cpu5.data             7486596                       # Total read bandwidth from this memory (bytes/s)
system.physmem.bw_read::cpu6.inst               72969                       # Total read bandwidth from this memory (bytes/s)
system.physmem.bw_read::cpu6.data             7282284                       # Total read bandwidth from this memory (bytes/s)
system.physmem.bw_read::cpu7.inst              197016                       # Total read bandwidth from this memory (bytes/s)
system.physmem.bw_read::cpu7.data             6016275                       # Total read bandwidth from this memory (bytes/s)
system.physmem.bw_read::cpu8.inst              266336                       # Total read bandwidth from this memory (bytes/s)
system.physmem.bw_read::cpu8.data             2116094                       # Total read bandwidth from this memory (bytes/s)
system.physmem.bw_read::total                43708296                       # Total read bandwidth from this memory (bytes/s)
system.physmem.bw_inst_read::cpu0.inst        1287899                       # Instruction read bandwidth from this memory (bytes/s)
system.physmem.bw_inst_read::cpu1.inst         134992                       # Instruction read bandwidth from this memory (bytes/s)
system.physmem.bw_inst_read::cpu2.inst         291875                       # Instruction read bandwidth from this memory (bytes/s)
system.physmem.bw_inst_read::cpu3.inst          47430                       # Instruction read bandwidth from this memory (bytes/s)
system.physmem.bw_inst_read::cpu4.inst         193367                       # Instruction read bandwidth from this memory (bytes/s)
system.physmem.bw_inst_read::cpu5.inst         124047                       # Instruction read bandwidth from this memory (bytes/s)
system.physmem.bw_inst_read::cpu6.inst          72969                       # Instruction read bandwidth from this memory (bytes/s)
system.physmem.bw_inst_read::cpu7.inst         197016                       # Instruction read bandwidth from this memory (bytes/s)
system.physmem.bw_inst_read::cpu8.inst         266336                       # Instruction read bandwidth from this memory (bytes/s)
system.physmem.bw_inst_read::total            2615931                       # Instruction read bandwidth from this memory (bytes/s)
system.physmem.bw_write::writebacks            740633                       # Write bandwidth from this memory (bytes/s)
system.physmem.bw_write::total                 740633                       # Write bandwidth from this memory (bytes/s)
system.physmem.bw_total::writebacks            740633                       # Total bandwidth to/from this memory (bytes/s)
system.physmem.bw_total::cpu0.inst            1287899                       # Total bandwidth to/from this memory (bytes/s)
system.physmem.bw_total::cpu0.data            1047102                       # Total bandwidth to/from this memory (bytes/s)
system.physmem.bw_total::cpu1.inst             134992                       # Total bandwidth to/from this memory (bytes/s)
system.physmem.bw_total::cpu1.data            1422891                       # Total bandwidth to/from this memory (bytes/s)
system.physmem.bw_total::cpu2.inst             291875                       # Total bandwidth to/from this memory (bytes/s)
system.physmem.bw_total::cpu2.data            3823564                       # Total bandwidth to/from this memory (bytes/s)
system.physmem.bw_total::cpu3.inst              47430                       # Total bandwidth to/from this memory (bytes/s)
system.physmem.bw_total::cpu3.data            3903829                       # Total bandwidth to/from this memory (bytes/s)
system.physmem.bw_total::cpu4.inst             193367                       # Total bandwidth to/from this memory (bytes/s)
system.physmem.bw_total::cpu4.data            7993729                       # Total bandwidth to/from this memory (bytes/s)
system.physmem.bw_total::cpu5.inst             124047                       # Total bandwidth to/from this memory (bytes/s)
system.physmem.bw_total::cpu5.data            7486596                       # Total bandwidth to/from this memory (bytes/s)
system.physmem.bw_total::cpu6.inst              72969                       # Total bandwidth to/from this memory (bytes/s)
system.physmem.bw_total::cpu6.data            7282284                       # Total bandwidth to/from this memory (bytes/s)
system.physmem.bw_total::cpu7.inst             197016                       # Total bandwidth to/from this memory (bytes/s)
system.physmem.bw_total::cpu7.data            6016275                       # Total bandwidth to/from this memory (bytes/s)
system.physmem.bw_total::cpu8.inst             266336                       # Total bandwidth to/from this memory (bytes/s)
system.physmem.bw_total::cpu8.data            2116094                       # Total bandwidth to/from this memory (bytes/s)
system.physmem.bw_total::total               44448929                       # Total bandwidth to/from this memory (bytes/s)
system.cpu0.branchPred.lookups                8759193                       # Number of BP lookups
system.cpu0.branchPred.condPredicted          8757915                       # Number of conditional branches predicted
system.cpu0.branchPred.condIncorrect              790                       # Number of conditional branches incorrect
system.cpu0.branchPred.BTBLookups             8756754                       # Number of BTB lookups
system.cpu0.branchPred.BTBHits                8756307                       # Number of BTB hits
system.cpu0.branchPred.BTBCorrect                   0                       # Number of correct BTB predictions (this stat may not work properly.
system.cpu0.branchPred.BTBHitPct            99.994895                       # BTB Hit Percentage
system.cpu0.branchPred.usedRAS                    474                       # Number of times the RAS was used to get a target.
system.cpu0.branchPred.RASInCorrect                55                       # Number of incorrect RAS predictions.
system.cpu0.dstage2_mmu.stage2_tlb.walker.walks            0                       # Table walker walks requested
system.cpu0.dstage2_mmu.stage2_tlb.walker.walkRequestOrigin_Requested::Data            0                       # Table walker requests started/completed, data/inst
system.cpu0.dstage2_mmu.stage2_tlb.walker.walkRequestOrigin_Requested::Inst            0                       # Table walker requests started/completed, data/inst
system.cpu0.dstage2_mmu.stage2_tlb.walker.walkRequestOrigin_Requested::total            0                       # Table walker requests started/completed, data/inst
system.cpu0.dstage2_mmu.stage2_tlb.walker.walkRequestOrigin_Completed::Data            0                       # Table walker requests started/completed, data/inst
system.cpu0.dstage2_mmu.stage2_tlb.walker.walkRequestOrigin_Completed::Inst            0                       # Table walker requests started/completed, data/inst
system.cpu0.dstage2_mmu.stage2_tlb.walker.walkRequestOrigin_Completed::total            0                       # Table walker requests started/completed, data/inst
system.cpu0.dstage2_mmu.stage2_tlb.walker.walkRequestOrigin::total            0                       # Table walker requests started/completed, data/inst
system.cpu0.dstage2_mmu.stage2_tlb.inst_hits            0                       # ITB inst hits
system.cpu0.dstage2_mmu.stage2_tlb.inst_misses            0                       # ITB inst misses
system.cpu0.dstage2_mmu.stage2_tlb.read_hits            0                       # DTB read hits
system.cpu0.dstage2_mmu.stage2_tlb.read_misses            0                       # DTB read misses
system.cpu0.dstage2_mmu.stage2_tlb.write_hits            0                       # DTB write hits
system.cpu0.dstage2_mmu.stage2_tlb.write_misses            0                       # DTB write misses
system.cpu0.dstage2_mmu.stage2_tlb.flush_tlb            0                       # Number of times complete TLB was flushed
system.cpu0.dstage2_mmu.stage2_tlb.flush_tlb_mva            0                       # Number of times TLB was flushed by MVA
system.cpu0.dstage2_mmu.stage2_tlb.flush_tlb_mva_asid            0                       # Number of times TLB was flushed by MVA & ASID
system.cpu0.dstage2_mmu.stage2_tlb.flush_tlb_asid            0                       # Number of times TLB was flushed by ASID
system.cpu0.dstage2_mmu.stage2_tlb.flush_entries            0                       # Number of entries that have been flushed from TLB
system.cpu0.dstage2_mmu.stage2_tlb.align_faults            0                       # Number of TLB faults due to alignment restrictions
system.cpu0.dstage2_mmu.stage2_tlb.prefetch_faults            0                       # Number of TLB faults due to prefetch
system.cpu0.dstage2_mmu.stage2_tlb.domain_faults            0                       # Number of TLB faults due to domain restrictions
system.cpu0.dstage2_mmu.stage2_tlb.perms_faults            0                       # Number of TLB faults due to permissions restrictions
system.cpu0.dstage2_mmu.stage2_tlb.read_accesses            0                       # DTB read accesses
system.cpu0.dstage2_mmu.stage2_tlb.write_accesses            0                       # DTB write accesses
system.cpu0.dstage2_mmu.stage2_tlb.inst_accesses            0                       # ITB inst accesses
system.cpu0.dstage2_mmu.stage2_tlb.hits             0                       # DTB hits
system.cpu0.dstage2_mmu.stage2_tlb.misses            0                       # DTB misses
system.cpu0.dstage2_mmu.stage2_tlb.accesses            0                       # DTB accesses
system.cpu0.dtb.walker.walks                        0                       # Table walker walks requested
system.cpu0.dtb.walker.walkRequestOrigin_Requested::Data            0                       # Table walker requests started/completed, data/inst
system.cpu0.dtb.walker.walkRequestOrigin_Requested::Inst            0                       # Table walker requests started/completed, data/inst
system.cpu0.dtb.walker.walkRequestOrigin_Requested::total            0                       # Table walker requests started/completed, data/inst
system.cpu0.dtb.walker.walkRequestOrigin_Completed::Data            0                       # Table walker requests started/completed, data/inst
system.cpu0.dtb.walker.walkRequestOrigin_Completed::Inst            0                       # Table walker requests started/completed, data/inst
system.cpu0.dtb.walker.walkRequestOrigin_Completed::total            0                       # Table walker requests started/completed, data/inst
system.cpu0.dtb.walker.walkRequestOrigin::total            0                       # Table walker requests started/completed, data/inst
system.cpu0.dtb.inst_hits                           0                       # ITB inst hits
system.cpu0.dtb.inst_misses                         0                       # ITB inst misses
system.cpu0.dtb.read_hits                           0                       # DTB read hits
system.cpu0.dtb.read_misses                         0                       # DTB read misses
system.cpu0.dtb.write_hits                          0                       # DTB write hits
system.cpu0.dtb.write_misses                        0                       # DTB write misses
system.cpu0.dtb.flush_tlb                           0                       # Number of times complete TLB was flushed
system.cpu0.dtb.flush_tlb_mva                       0                       # Number of times TLB was flushed by MVA
system.cpu0.dtb.flush_tlb_mva_asid                  0                       # Number of times TLB was flushed by MVA & ASID
system.cpu0.dtb.flush_tlb_asid                      0                       # Number of times TLB was flushed by ASID
system.cpu0.dtb.flush_entries                       0                       # Number of entries that have been flushed from TLB
system.cpu0.dtb.align_faults                        0                       # Number of TLB faults due to alignment restrictions
system.cpu0.dtb.prefetch_faults                     0                       # Number of TLB faults due to prefetch
system.cpu0.dtb.domain_faults                       0                       # Number of TLB faults due to domain restrictions
system.cpu0.dtb.perms_faults                        0                       # Number of TLB faults due to permissions restrictions
system.cpu0.dtb.read_accesses                       0                       # DTB read accesses
system.cpu0.dtb.write_accesses                      0                       # DTB write accesses
system.cpu0.dtb.inst_accesses                       0                       # ITB inst accesses
system.cpu0.dtb.hits                                0                       # DTB hits
system.cpu0.dtb.misses                              0                       # DTB misses
system.cpu0.dtb.accesses                            0                       # DTB accesses
system.cpu0.istage2_mmu.stage2_tlb.walker.walks            0                       # Table walker walks requested
system.cpu0.istage2_mmu.stage2_tlb.walker.walkRequestOrigin_Requested::Data            0                       # Table walker requests started/completed, data/inst
system.cpu0.istage2_mmu.stage2_tlb.walker.walkRequestOrigin_Requested::Inst            0                       # Table walker requests started/completed, data/inst
system.cpu0.istage2_mmu.stage2_tlb.walker.walkRequestOrigin_Requested::total            0                       # Table walker requests started/completed, data/inst
system.cpu0.istage2_mmu.stage2_tlb.walker.walkRequestOrigin_Completed::Data            0                       # Table walker requests started/completed, data/inst
system.cpu0.istage2_mmu.stage2_tlb.walker.walkRequestOrigin_Completed::Inst            0                       # Table walker requests started/completed, data/inst
system.cpu0.istage2_mmu.stage2_tlb.walker.walkRequestOrigin_Completed::total            0                       # Table walker requests started/completed, data/inst
system.cpu0.istage2_mmu.stage2_tlb.walker.walkRequestOrigin::total            0                       # Table walker requests started/completed, data/inst
system.cpu0.istage2_mmu.stage2_tlb.inst_hits            0                       # ITB inst hits
system.cpu0.istage2_mmu.stage2_tlb.inst_misses            0                       # ITB inst misses
system.cpu0.istage2_mmu.stage2_tlb.read_hits            0                       # DTB read hits
system.cpu0.istage2_mmu.stage2_tlb.read_misses            0                       # DTB read misses
system.cpu0.istage2_mmu.stage2_tlb.write_hits            0                       # DTB write hits
system.cpu0.istage2_mmu.stage2_tlb.write_misses            0                       # DTB write misses
system.cpu0.istage2_mmu.stage2_tlb.flush_tlb            0                       # Number of times complete TLB was flushed
system.cpu0.istage2_mmu.stage2_tlb.flush_tlb_mva            0                       # Number of times TLB was flushed by MVA
system.cpu0.istage2_mmu.stage2_tlb.flush_tlb_mva_asid            0                       # Number of times TLB was flushed by MVA & ASID
system.cpu0.istage2_mmu.stage2_tlb.flush_tlb_asid            0                       # Number of times TLB was flushed by ASID
system.cpu0.istage2_mmu.stage2_tlb.flush_entries            0                       # Number of entries that have been flushed from TLB
system.cpu0.istage2_mmu.stage2_tlb.align_faults            0                       # Number of TLB faults due to alignment restrictions
system.cpu0.istage2_mmu.stage2_tlb.prefetch_faults            0                       # Number of TLB faults due to prefetch
system.cpu0.istage2_mmu.stage2_tlb.domain_faults            0                       # Number of TLB faults due to domain restrictions
system.cpu0.istage2_mmu.stage2_tlb.perms_faults            0                       # Number of TLB faults due to permissions restrictions
system.cpu0.istage2_mmu.stage2_tlb.read_accesses            0                       # DTB read accesses
system.cpu0.istage2_mmu.stage2_tlb.write_accesses            0                       # DTB write accesses
system.cpu0.istage2_mmu.stage2_tlb.inst_accesses            0                       # ITB inst accesses
system.cpu0.istage2_mmu.stage2_tlb.hits             0                       # DTB hits
system.cpu0.istage2_mmu.stage2_tlb.misses            0                       # DTB misses
system.cpu0.istage2_mmu.stage2_tlb.accesses            0                       # DTB accesses
system.cpu0.itb.walker.walks                        0                       # Table walker walks requested
system.cpu0.itb.walker.walkRequestOrigin_Requested::Data            0                       # Table walker requests started/completed, data/inst
system.cpu0.itb.walker.walkRequestOrigin_Requested::Inst            0                       # Table walker requests started/completed, data/inst
system.cpu0.itb.walker.walkRequestOrigin_Requested::total            0                       # Table walker requests started/completed, data/inst
system.cpu0.itb.walker.walkRequestOrigin_Completed::Data            0                       # Table walker requests started/completed, data/inst
system.cpu0.itb.walker.walkRequestOrigin_Completed::Inst            0                       # Table walker requests started/completed, data/inst
system.cpu0.itb.walker.walkRequestOrigin_Completed::total            0                       # Table walker requests started/completed, data/inst
system.cpu0.itb.walker.walkRequestOrigin::total            0                       # Table walker requests started/completed, data/inst
system.cpu0.itb.inst_hits                           0                       # ITB inst hits
system.cpu0.itb.inst_misses                         0                       # ITB inst misses
system.cpu0.itb.read_hits                           0                       # DTB read hits
system.cpu0.itb.read_misses                         0                       # DTB read misses
system.cpu0.itb.write_hits                          0                       # DTB write hits
system.cpu0.itb.write_misses                        0                       # DTB write misses
system.cpu0.itb.flush_tlb                           0                       # Number of times complete TLB was flushed
system.cpu0.itb.flush_tlb_mva                       0                       # Number of times TLB was flushed by MVA
system.cpu0.itb.flush_tlb_mva_asid                  0                       # Number of times TLB was flushed by MVA & ASID
system.cpu0.itb.flush_tlb_asid                      0                       # Number of times TLB was flushed by ASID
system.cpu0.itb.flush_entries                       0                       # Number of entries that have been flushed from TLB
system.cpu0.itb.align_faults                        0                       # Number of TLB faults due to alignment restrictions
system.cpu0.itb.prefetch_faults                     0                       # Number of TLB faults due to prefetch
system.cpu0.itb.domain_faults                       0                       # Number of TLB faults due to domain restrictions
system.cpu0.itb.perms_faults                        0                       # Number of TLB faults due to permissions restrictions
system.cpu0.itb.read_accesses                       0                       # DTB read accesses
system.cpu0.itb.write_accesses                      0                       # DTB write accesses
system.cpu0.itb.inst_accesses                       0                       # ITB inst accesses
system.cpu0.itb.hits                                0                       # DTB hits
system.cpu0.itb.misses                              0                       # DTB misses
system.cpu0.itb.accesses                            0                       # DTB accesses
system.cpu0.workload.num_syscalls              144414                       # Number of system calls
system.cpu0.numCycles                        17541751                       # number of cpu cycles simulated
system.cpu0.numWorkItemsStarted                     0                       # number of work items this cpu started
system.cpu0.numWorkItemsCompleted                   0                       # number of work items this cpu completed
system.cpu0.fetch.icacheStallCycles              8950                       # Number of cycles fetch is stalled on an Icache miss
system.cpu0.fetch.Insts                      43797508                       # Number of instructions fetch has processed
system.cpu0.fetch.Branches                    8759193                       # Number of branches that fetch encountered
system.cpu0.fetch.predictedBranches           8756781                       # Number of branches that fetch has predicted taken
system.cpu0.fetch.Cycles                     17523548                       # Number of cycles fetch has run and was not squashing or blocked
system.cpu0.fetch.SquashCycles                   1721                       # Number of cycles fetch has spent squashing
system.cpu0.fetch.PendingTrapStallCycles          168                       # Number of stall cycles due to pending traps
system.cpu0.fetch.CacheLines                     2550                       # Number of cache lines fetched
system.cpu0.fetch.IcacheSquashes                  282                       # Number of outstanding Icache misses that were squashed
system.cpu0.fetch.rateDist::samples          17533526                       # Number of instructions fetched each cycle (Total)
system.cpu0.fetch.rateDist::mean             2.498238                       # Number of instructions fetched each cycle (Total)
system.cpu0.fetch.rateDist::stdev            0.504593                       # Number of instructions fetched each cycle (Total)
system.cpu0.fetch.rateDist::underflows              0      0.00%      0.00% # Number of instructions fetched each cycle (Total)
system.cpu0.fetch.rateDist::0                   13238      0.08%      0.08% # Number of instructions fetched each cycle (Total)
system.cpu0.fetch.rateDist::1                     767      0.00%      0.08% # Number of instructions fetched each cycle (Total)
system.cpu0.fetch.rateDist::2                 8756407     49.94%     50.02% # Number of instructions fetched each cycle (Total)
system.cpu0.fetch.rateDist::3                 8763114     49.98%    100.00% # Number of instructions fetched each cycle (Total)
system.cpu0.fetch.rateDist::overflows               0      0.00%    100.00% # Number of instructions fetched each cycle (Total)
system.cpu0.fetch.rateDist::min_value               0                       # Number of instructions fetched each cycle (Total)
system.cpu0.fetch.rateDist::max_value               3                       # Number of instructions fetched each cycle (Total)
system.cpu0.fetch.rateDist::total            17533526                       # Number of instructions fetched each cycle (Total)
system.cpu0.fetch.branchRate                 0.499334                       # Number of branch fetches per cycle
system.cpu0.fetch.rate                       2.496758                       # Number of inst fetches per cycle
system.cpu0.decode.IdleCycles                    8414                       # Number of cycles decode is idle
system.cpu0.decode.BlockedCycles                 5423                       # Number of cycles decode is blocked
system.cpu0.decode.RunCycles                 17518377                       # Number of cycles decode is running
system.cpu0.decode.UnblockCycles                  653                       # Number of cycles decode is unblocking
system.cpu0.decode.SquashCycles                   659                       # Number of cycles decode is squashing
system.cpu0.decode.BranchResolved                 489                       # Number of times decode resolved a branch
system.cpu0.decode.BranchMispred                  217                       # Number of times decode detected a branch misprediction
system.cpu0.decode.DecodedInsts              43799519                       # Number of instructions handled by decode
system.cpu0.decode.SquashedInsts                  479                       # Number of squashed instructions handled by decode
system.cpu0.rename.SquashCycles                   659                       # Number of cycles rename is squashing
system.cpu0.rename.IdleCycles                    9137                       # Number of cycles rename is idle
system.cpu0.rename.BlockCycles                    639                       # Number of cycles rename is blocking
system.cpu0.rename.serializeStallCycles          2424                       # count of cycles rename stalled for serializing inst
system.cpu0.rename.RunCycles                 17518212                       # Number of cycles rename is running
system.cpu0.rename.UnblockCycles                 2455                       # Number of cycles rename is unblocking
system.cpu0.rename.RenamedInsts              43798406                       # Number of instructions processed by rename
system.cpu0.rename.IQFullEvents                     1                       # Number of times rename has blocked due to IQ full
system.cpu0.rename.SQFullEvents                  2331                       # Number of times rename has blocked due to SQ full
system.cpu0.rename.RenamedOperands           43800225                       # Number of destination operands rename has renamed
system.cpu0.rename.RenameLookups            201477289                       # Number of register rename lookups that rename has made
system.cpu0.rename.int_rename_lookups        43804367                       # Number of integer rename lookups
system.cpu0.rename.fp_rename_lookups               16                       # Number of floating rename lookups
system.cpu0.rename.CommittedMaps             43791273                       # Number of HB maps that are committed
system.cpu0.rename.UndoneMaps                    8952                       # Number of HB maps that are undone due to squashing
system.cpu0.rename.serializingInsts                60                       # count of serializing insts renamed
system.cpu0.rename.tempSerializingInsts            59                       # count of temporary serializing insts renamed
system.cpu0.rename.skidInsts                     1171                       # count of insts added to the skid buffer
system.cpu0.memDep0.insertedLoads            17514000                       # Number of loads inserted to the mem dependence unit.
system.cpu0.memDep0.insertedStores            8759648                       # Number of stores inserted to the mem dependence unit.
system.cpu0.memDep0.conflictingLoads          8755399                       # Number of conflicting loads.
system.cpu0.memDep0.conflictingStores         8755344                       # Number of conflicting stores.
system.cpu0.iq.iqInstsAdded                  43796340                       # Number of instructions added to the IQ (excludes non-spec)
system.cpu0.iq.iqNonSpecInstsAdded                 82                       # Number of non-speculative instructions added to the IQ
system.cpu0.iq.iqInstsIssued                 43794113                       # Number of instructions issued
system.cpu0.iq.iqSquashedInstsIssued              279                       # Number of squashed instructions issued
system.cpu0.iq.iqSquashedInstsExamined           6084                       # Number of squashed instructions iterated over during squash; mainly for profiling
system.cpu0.iq.iqSquashedOperandsExamined        14615                       # Number of squashed operands that are examined and possibly removed from graph
system.cpu0.iq.iqSquashedNonSpecRemoved             5                       # Number of squashed non-spec instructions that were removed
system.cpu0.iq.issued_per_cycle::samples     17533526                       # Number of insts issued each cycle
system.cpu0.iq.issued_per_cycle::mean        2.497736                       # Number of insts issued each cycle
system.cpu0.iq.issued_per_cycle::stdev       0.705542                       # Number of insts issued each cycle
system.cpu0.iq.issued_per_cycle::underflows            0      0.00%      0.00% # Number of insts issued each cycle
system.cpu0.iq.issued_per_cycle::0              14282      0.08%      0.08% # Number of insts issued each cycle
system.cpu0.iq.issued_per_cycle::1            2129513     12.15%     12.23% # Number of insts issued each cycle
system.cpu0.iq.issued_per_cycle::2            4504593     25.69%     37.92% # Number of insts issued each cycle
system.cpu0.iq.issued_per_cycle::3           10885138     62.08%    100.00% # Number of insts issued each cycle
system.cpu0.iq.issued_per_cycle::overflows            0      0.00%    100.00% # Number of insts issued each cycle
system.cpu0.iq.issued_per_cycle::min_value            0                       # Number of insts issued each cycle
system.cpu0.iq.issued_per_cycle::max_value            3                       # Number of insts issued each cycle
system.cpu0.iq.issued_per_cycle::total       17533526                       # Number of insts issued each cycle
system.cpu0.iq.fu_full::No_OpClass                  0                       # attempts to use FU when none available
system.cpu0.iq.fu_full::IntAlu                      0                       # attempts to use FU when none available
system.cpu0.iq.fu_full::IntMult                     0                       # attempts to use FU when none available
system.cpu0.iq.fu_full::IntDiv                      0                       # attempts to use FU when none available
system.cpu0.iq.fu_full::FloatAdd                    0                       # attempts to use FU when none available
system.cpu0.iq.fu_full::FloatCmp                    0                       # attempts to use FU when none available
system.cpu0.iq.fu_full::FloatCvt                    0                       # attempts to use FU when none available
system.cpu0.iq.fu_full::FloatMult                   0                       # attempts to use FU when none available
system.cpu0.iq.fu_full::FloatDiv                    0                       # attempts to use FU when none available
system.cpu0.iq.fu_full::FloatSqrt                   0                       # attempts to use FU when none available
system.cpu0.iq.fu_full::SimdAdd                     0                       # attempts to use FU when none available
system.cpu0.iq.fu_full::SimdAddAcc                  0                       # attempts to use FU when none available
system.cpu0.iq.fu_full::SimdAlu                     0                       # attempts to use FU when none available
system.cpu0.iq.fu_full::SimdCmp                     0                       # attempts to use FU when none available
system.cpu0.iq.fu_full::SimdCvt                     0                       # attempts to use FU when none available
system.cpu0.iq.fu_full::SimdMisc                    0                       # attempts to use FU when none available
system.cpu0.iq.fu_full::SimdMult                    0                       # attempts to use FU when none available
system.cpu0.iq.fu_full::SimdMultAcc                 0                       # attempts to use FU when none available
system.cpu0.iq.fu_full::SimdShift                   0                       # attempts to use FU when none available
system.cpu0.iq.fu_full::SimdShiftAcc                0                       # attempts to use FU when none available
system.cpu0.iq.fu_full::SimdSqrt                    0                       # attempts to use FU when none available
system.cpu0.iq.fu_full::SimdFloatAdd                0                       # attempts to use FU when none available
system.cpu0.iq.fu_full::SimdFloatAlu                0                       # attempts to use FU when none available
system.cpu0.iq.fu_full::SimdFloatCmp                0                       # attempts to use FU when none available
system.cpu0.iq.fu_full::SimdFloatCvt                0                       # attempts to use FU when none available
system.cpu0.iq.fu_full::SimdFloatDiv                0                       # attempts to use FU when none available
system.cpu0.iq.fu_full::SimdFloatMisc               0                       # attempts to use FU when none available
system.cpu0.iq.fu_full::SimdFloatMult               0                       # attempts to use FU when none available
system.cpu0.iq.fu_full::SimdFloatMultAcc            0                       # attempts to use FU when none available
system.cpu0.iq.fu_full::SimdFloatSqrt               0                       # attempts to use FU when none available
system.cpu0.iq.fu_full::MemRead                     0                       # attempts to use FU when none available
system.cpu0.iq.fu_full::MemWrite                    0                       # attempts to use FU when none available
system.cpu0.iq.fu_full::IprAccess                   0                       # attempts to use FU when none available
system.cpu0.iq.fu_full::InstPrefetch                0                       # attempts to use FU when none available
system.cpu0.iq.FU_type_0::No_OpClass                0      0.00%      0.00% # Type of FU issued
system.cpu0.iq.FU_type_0::IntAlu             17521149     40.01%     40.01% # Type of FU issued
system.cpu0.iq.FU_type_0::IntMult                   6      0.00%     40.01% # Type of FU issued
system.cpu0.iq.FU_type_0::IntDiv                    0      0.00%     40.01% # Type of FU issued
system.cpu0.iq.FU_type_0::FloatAdd                  0      0.00%     40.01% # Type of FU issued
system.cpu0.iq.FU_type_0::FloatCmp                  0      0.00%     40.01% # Type of FU issued
system.cpu0.iq.FU_type_0::FloatCvt                  0      0.00%     40.01% # Type of FU issued
system.cpu0.iq.FU_type_0::FloatMult                 0      0.00%     40.01% # Type of FU issued
system.cpu0.iq.FU_type_0::FloatDiv                  0      0.00%     40.01% # Type of FU issued
system.cpu0.iq.FU_type_0::FloatSqrt                 0      0.00%     40.01% # Type of FU issued
system.cpu0.iq.FU_type_0::SimdAdd                   0      0.00%     40.01% # Type of FU issued
system.cpu0.iq.FU_type_0::SimdAddAcc                0      0.00%     40.01% # Type of FU issued
system.cpu0.iq.FU_type_0::SimdAlu                   0      0.00%     40.01% # Type of FU issued
system.cpu0.iq.FU_type_0::SimdCmp                   0      0.00%     40.01% # Type of FU issued
system.cpu0.iq.FU_type_0::SimdCvt                   0      0.00%     40.01% # Type of FU issued
system.cpu0.iq.FU_type_0::SimdMisc                  0      0.00%     40.01% # Type of FU issued
system.cpu0.iq.FU_type_0::SimdMult                  0      0.00%     40.01% # Type of FU issued
system.cpu0.iq.FU_type_0::SimdMultAcc               0      0.00%     40.01% # Type of FU issued
system.cpu0.iq.FU_type_0::SimdShift                 0      0.00%     40.01% # Type of FU issued
system.cpu0.iq.FU_type_0::SimdShiftAcc              0      0.00%     40.01% # Type of FU issued
system.cpu0.iq.FU_type_0::SimdSqrt                  0      0.00%     40.01% # Type of FU issued
system.cpu0.iq.FU_type_0::SimdFloatAdd              0      0.00%     40.01% # Type of FU issued
system.cpu0.iq.FU_type_0::SimdFloatAlu              0      0.00%     40.01% # Type of FU issued
system.cpu0.iq.FU_type_0::SimdFloatCmp              0      0.00%     40.01% # Type of FU issued
system.cpu0.iq.FU_type_0::SimdFloatCvt              0      0.00%     40.01% # Type of FU issued
system.cpu0.iq.FU_type_0::SimdFloatDiv              0      0.00%     40.01% # Type of FU issued
system.cpu0.iq.FU_type_0::SimdFloatMisc             3      0.00%     40.01% # Type of FU issued
system.cpu0.iq.FU_type_0::SimdFloatMult             0      0.00%     40.01% # Type of FU issued
system.cpu0.iq.FU_type_0::SimdFloatMultAcc            0      0.00%     40.01% # Type of FU issued
system.cpu0.iq.FU_type_0::SimdFloatSqrt             0      0.00%     40.01% # Type of FU issued
system.cpu0.iq.FU_type_0::MemRead            17513615     39.99%     80.00% # Type of FU issued
system.cpu0.iq.FU_type_0::MemWrite            8759340     20.00%    100.00% # Type of FU issued
system.cpu0.iq.FU_type_0::IprAccess                 0      0.00%    100.00% # Type of FU issued
system.cpu0.iq.FU_type_0::InstPrefetch              0      0.00%    100.00% # Type of FU issued
system.cpu0.iq.FU_type_0::total              43794113                       # Type of FU issued
system.cpu0.iq.rate                          2.496565                       # Inst issue rate
system.cpu0.iq.fu_busy_cnt                          0                       # FU busy when requested
system.cpu0.iq.fu_busy_rate                         0                       # FU busy rate (busy events/executed inst)
system.cpu0.iq.int_inst_queue_reads         105121999                       # Number of integer instruction queue reads
system.cpu0.iq.int_inst_queue_writes         43802537                       # Number of integer instruction queue writes
system.cpu0.iq.int_inst_queue_wakeup_accesses     43792874                       # Number of integer instruction queue wakeup accesses
system.cpu0.iq.fp_inst_queue_reads                 32                       # Number of floating instruction queue reads
system.cpu0.iq.fp_inst_queue_writes                16                       # Number of floating instruction queue writes
system.cpu0.iq.fp_inst_queue_wakeup_accesses           16                       # Number of floating instruction queue wakeup accesses
system.cpu0.iq.int_alu_accesses              43794097                       # Number of integer alu accesses
system.cpu0.iq.fp_alu_accesses                     16                       # Number of floating point alu accesses
system.cpu0.iew.lsq.thread0.forwLoads         8755478                       # Number of loads that had data forwarded from stores
system.cpu0.iew.lsq.thread0.invAddrLoads            0                       # Number of loads ignored due to an invalid address
system.cpu0.iew.lsq.thread0.squashedLoads         1570                       # Number of loads squashed
system.cpu0.iew.lsq.thread0.ignoredResponses            1                       # Number of memory responses ignored because the instruction is squashed
system.cpu0.iew.lsq.thread0.memOrderViolation           48                       # Number of memory ordering violations
system.cpu0.iew.lsq.thread0.squashedStores          622                       # Number of stores squashed
system.cpu0.iew.lsq.thread0.invAddrSwpfs            0                       # Number of software prefetches ignored due to an invalid address
system.cpu0.iew.lsq.thread0.blockedLoads            0                       # Number of blocked loads due to partial load-store forwarding
system.cpu0.iew.lsq.thread0.rescheduledLoads            8                       # Number of loads that were rescheduled
system.cpu0.iew.lsq.thread0.cacheBlocked            0                       # Number of times an access to memory failed due to the cache being blocked
system.cpu0.iew.iewIdleCycles                       0                       # Number of cycles IEW is idle
system.cpu0.iew.iewSquashCycles                   659                       # Number of cycles IEW is squashing
system.cpu0.iew.iewBlockCycles                    510                       # Number of cycles IEW is blocking
system.cpu0.iew.iewUnblockCycles                  131                       # Number of cycles IEW is unblocking
system.cpu0.iew.iewDispatchedInsts           43796444                       # Number of instructions dispatched to IQ
system.cpu0.iew.iewDispSquashedInsts              405                       # Number of squashed instructions skipped by dispatch
system.cpu0.iew.iewDispLoadInsts             17514000                       # Number of dispatched load instructions
system.cpu0.iew.iewDispStoreInsts             8759648                       # Number of dispatched store instructions
system.cpu0.iew.iewDispNonSpecInsts                56                       # Number of dispatched non-speculative instructions
system.cpu0.iew.iewIQFullEvents                     3                       # Number of times the IQ has become full, causing a stall
system.cpu0.iew.iewLSQFullEvents                    4                       # Number of times the LSQ has become full, causing a stall
system.cpu0.iew.memOrderViolationEvents            48                       # Number of memory order violations
system.cpu0.iew.predictedTakenIncorrect            79                       # Number of branches that were predicted taken incorrectly
system.cpu0.iew.predictedNotTakenIncorrect          540                       # Number of branches that were predicted not taken incorrectly
system.cpu0.iew.branchMispredicts                 619                       # Number of branch mispredicts detected at execute
system.cpu0.iew.iewExecutedInsts             43793349                       # Number of executed instructions
system.cpu0.iew.iewExecLoadInsts             17513384                       # Number of load instructions executed
system.cpu0.iew.iewExecSquashedInsts              764                       # Number of squashed instructions skipped in execute
system.cpu0.iew.exec_swp                            0                       # number of swp insts executed
system.cpu0.iew.exec_nop                           22                       # number of nop insts executed
system.cpu0.iew.exec_refs                    26272612                       # number of memory reference insts executed
system.cpu0.iew.exec_branches                 8757608                       # Number of branches executed
system.cpu0.iew.exec_stores                   8759228                       # Number of stores executed
system.cpu0.iew.exec_rate                    2.496521                       # Inst execution rate
system.cpu0.iew.wb_sent                      43793008                       # cumulative count of insts sent to commit
system.cpu0.iew.wb_count                     43792890                       # cumulative count of insts written-back
system.cpu0.iew.wb_producers                 26273221                       # num instructions producing a value
system.cpu0.iew.wb_consumers                 26284029                       # num instructions consuming a value
system.cpu0.iew.wb_penalized                        0                       # number of instrctions required to write to 'other' IQ
system.cpu0.iew.wb_rate                      2.496495                       # insts written-back per cycle
system.cpu0.iew.wb_fanout                    0.999589                       # average fanout of values written-back
system.cpu0.iew.wb_penalized_rate                   0                       # fraction of instructions written-back that wrote to 'other' IQ
system.cpu0.commit.commitSquashedInsts           6105                       # The number of squashed insts skipped by commit
system.cpu0.commit.commitNonSpecStalls             77                       # The number of times commit has been forced to stall to communicate backwards
system.cpu0.commit.branchMispredicts              589                       # The number of times a branch was mispredicted
system.cpu0.commit.committed_per_cycle::samples     17532410                       # Number of insts commited each cycle
system.cpu0.commit.committed_per_cycle::mean     2.497679                       # Number of insts commited each cycle
system.cpu0.commit.committed_per_cycle::stdev     1.579877                       # Number of insts commited each cycle
system.cpu0.commit.committed_per_cycle::underflows            0      0.00%      0.00% # Number of insts commited each cycle
system.cpu0.commit.committed_per_cycle::0        15435      0.09%      0.09% # Number of insts commited each cycle
system.cpu0.commit.committed_per_cycle::1      8758018     49.95%     50.04% # Number of insts commited each cycle
system.cpu0.commit.committed_per_cycle::2         1278      0.01%     50.05% # Number of insts commited each cycle
system.cpu0.commit.committed_per_cycle::3      2128120     12.14%     62.19% # Number of insts commited each cycle
system.cpu0.commit.committed_per_cycle::4      4502880     25.68%     87.87% # Number of insts commited each cycle
system.cpu0.commit.committed_per_cycle::5      2126434     12.13%    100.00% # Number of insts commited each cycle
system.cpu0.commit.committed_per_cycle::6           94      0.00%    100.00% # Number of insts commited each cycle
system.cpu0.commit.committed_per_cycle::7           58      0.00%    100.00% # Number of insts commited each cycle
system.cpu0.commit.committed_per_cycle::8           93      0.00%    100.00% # Number of insts commited each cycle
system.cpu0.commit.committed_per_cycle::overflows            0      0.00%    100.00% # Number of insts commited each cycle
system.cpu0.commit.committed_per_cycle::min_value            0                       # Number of insts commited each cycle
system.cpu0.commit.committed_per_cycle::max_value            8                       # Number of insts commited each cycle
system.cpu0.commit.committed_per_cycle::total     17532410                       # Number of insts commited each cycle
system.cpu0.commit.committedInsts            43786845                       # Number of instructions committed
system.cpu0.commit.committedOps              43790338                       # Number of ops (including micro ops) committed
system.cpu0.commit.swp_count                        0                       # Number of s/w prefetches committed
system.cpu0.commit.refs                      26271456                       # Number of memory references committed
system.cpu0.commit.loads                     17512430                       # Number of loads committed
system.cpu0.commit.membars                         26                       # Number of memory barriers committed
system.cpu0.commit.branches                   8757156                       # Number of branches committed
system.cpu0.commit.fp_insts                        16                       # Number of committed floating point instructions.
system.cpu0.commit.int_insts                 35033604                       # Number of committed integer instructions.
system.cpu0.commit.function_calls                 170                       # Number of function calls committed.
system.cpu0.commit.op_class_0::No_OpClass            0      0.00%      0.00% # Class of committed instruction
system.cpu0.commit.op_class_0::IntAlu        17518873     40.01%     40.01% # Class of committed instruction
system.cpu0.commit.op_class_0::IntMult              6      0.00%     40.01% # Class of committed instruction
system.cpu0.commit.op_class_0::IntDiv               0      0.00%     40.01% # Class of committed instruction
system.cpu0.commit.op_class_0::FloatAdd             0      0.00%     40.01% # Class of committed instruction
system.cpu0.commit.op_class_0::FloatCmp             0      0.00%     40.01% # Class of committed instruction
system.cpu0.commit.op_class_0::FloatCvt             0      0.00%     40.01% # Class of committed instruction
system.cpu0.commit.op_class_0::FloatMult            0      0.00%     40.01% # Class of committed instruction
system.cpu0.commit.op_class_0::FloatDiv             0      0.00%     40.01% # Class of committed instruction
system.cpu0.commit.op_class_0::FloatSqrt            0      0.00%     40.01% # Class of committed instruction
system.cpu0.commit.op_class_0::SimdAdd              0      0.00%     40.01% # Class of committed instruction
system.cpu0.commit.op_class_0::SimdAddAcc            0      0.00%     40.01% # Class of committed instruction
system.cpu0.commit.op_class_0::SimdAlu              0      0.00%     40.01% # Class of committed instruction
system.cpu0.commit.op_class_0::SimdCmp              0      0.00%     40.01% # Class of committed instruction
system.cpu0.commit.op_class_0::SimdCvt              0      0.00%     40.01% # Class of committed instruction
system.cpu0.commit.op_class_0::SimdMisc             0      0.00%     40.01% # Class of committed instruction
system.cpu0.commit.op_class_0::SimdMult             0      0.00%     40.01% # Class of committed instruction
system.cpu0.commit.op_class_0::SimdMultAcc            0      0.00%     40.01% # Class of committed instruction
system.cpu0.commit.op_class_0::SimdShift            0      0.00%     40.01% # Class of committed instruction
system.cpu0.commit.op_class_0::SimdShiftAcc            0      0.00%     40.01% # Class of committed instruction
system.cpu0.commit.op_class_0::SimdSqrt             0      0.00%     40.01% # Class of committed instruction
system.cpu0.commit.op_class_0::SimdFloatAdd            0      0.00%     40.01% # Class of committed instruction
system.cpu0.commit.op_class_0::SimdFloatAlu            0      0.00%     40.01% # Class of committed instruction
system.cpu0.commit.op_class_0::SimdFloatCmp            0      0.00%     40.01% # Class of committed instruction
system.cpu0.commit.op_class_0::SimdFloatCvt            0      0.00%     40.01% # Class of committed instruction
system.cpu0.commit.op_class_0::SimdFloatDiv            0      0.00%     40.01% # Class of committed instruction
system.cpu0.commit.op_class_0::SimdFloatMisc            3      0.00%     40.01% # Class of committed instruction
system.cpu0.commit.op_class_0::SimdFloatMult            0      0.00%     40.01% # Class of committed instruction
system.cpu0.commit.op_class_0::SimdFloatMultAcc            0      0.00%     40.01% # Class of committed instruction
system.cpu0.commit.op_class_0::SimdFloatSqrt            0      0.00%     40.01% # Class of committed instruction
system.cpu0.commit.op_class_0::MemRead       17512430     39.99%     80.00% # Class of committed instruction
system.cpu0.commit.op_class_0::MemWrite       8759026     20.00%    100.00% # Class of committed instruction
system.cpu0.commit.op_class_0::IprAccess            0      0.00%    100.00% # Class of committed instruction
system.cpu0.commit.op_class_0::InstPrefetch            0      0.00%    100.00% # Class of committed instruction
system.cpu0.commit.op_class_0::total         43790338                       # Class of committed instruction
system.cpu0.commit.bw_lim_events                   93                       # number cycles where commit BW limit reached
system.cpu0.rob.rob_reads                    61328447                       # The number of ROB reads
system.cpu0.rob.rob_writes                   87594007                       # The number of ROB writes
system.cpu0.timesIdled                            249                       # Number of times that the entire CPU went into an idle state and unscheduled itself
system.cpu0.idleCycles                           8225                       # Total number of cycles that the CPU has spent unscheduled due to idling
system.cpu0.committedInsts                   43786845                       # Number of Instructions Simulated
system.cpu0.committedOps                     43790338                       # Number of Ops (including micro ops) Simulated
system.cpu0.cpi                              0.400617                       # CPI: Cycles Per Instruction
system.cpu0.cpi_total                        0.400617                       # CPI: Total CPI of All Threads
system.cpu0.ipc                              2.496150                       # IPC: Instructions Per Cycle
system.cpu0.ipc_total                        2.496150                       # IPC: Total IPC of All Threads
system.cpu0.int_regfile_reads                43796222                       # number of integer regfile reads
system.cpu0.int_regfile_writes               17519951                       # number of integer regfile writes
system.cpu0.fp_regfile_reads                     1296                       # number of floating regfile reads
system.cpu0.cc_regfile_reads                183918768                       # number of cc regfile reads
system.cpu0.cc_regfile_writes                26274034                       # number of cc regfile writes
system.cpu0.misc_regfile_reads               26760197                       # number of misc regfile reads
system.cpu0.misc_regfile_writes                    54                       # number of misc regfile writes
system.cpu0.dcache.tags.replacements               43                       # number of replacements
system.cpu0.dcache.tags.tagsinuse          149.598207                       # Cycle average of tags in use
system.cpu0.dcache.tags.total_refs           17513699                       # Total number of references to valid blocks.
system.cpu0.dcache.tags.sampled_refs              212                       # Sample count of references to valid blocks.
system.cpu0.dcache.tags.avg_refs         82611.787736                       # Average number of references to valid blocks.
system.cpu0.dcache.tags.warmup_cycle                0                       # Cycle when the warmup percentage was hit.
system.cpu0.dcache.tags.occ_blocks::cpu0.data   149.598207                       # Average occupied blocks per requestor
system.cpu0.dcache.tags.occ_percent::cpu0.data     0.292184                       # Average percentage of cache occupancy
system.cpu0.dcache.tags.occ_percent::total     0.292184                       # Average percentage of cache occupancy
system.cpu0.dcache.tags.occ_task_id_blocks::1024          169                       # Occupied blocks per task id
system.cpu0.dcache.tags.age_task_id_blocks_1024::0           27                       # Occupied blocks per task id
system.cpu0.dcache.tags.age_task_id_blocks_1024::4          142                       # Occupied blocks per task id
system.cpu0.dcache.tags.occ_task_id_percent::1024     0.330078                       # Percentage of cache occupancy per task id
system.cpu0.dcache.tags.tag_accesses         35033702                       # Number of tag accesses
system.cpu0.dcache.tags.data_accesses        35033702                       # Number of data accesses
system.cpu0.dcache.ReadReq_hits::cpu0.data      8757457                       # number of ReadReq hits
system.cpu0.dcache.ReadReq_hits::total        8757457                       # number of ReadReq hits
system.cpu0.dcache.WriteReq_hits::cpu0.data      8756532                       # number of WriteReq hits
system.cpu0.dcache.WriteReq_hits::total       8756532                       # number of WriteReq hits
system.cpu0.dcache.LoadLockedReq_hits::cpu0.data           22                       # number of LoadLockedReq hits
system.cpu0.dcache.LoadLockedReq_hits::total           22                       # number of LoadLockedReq hits
system.cpu0.dcache.StoreCondReq_hits::cpu0.data           24                       # number of StoreCondReq hits
system.cpu0.dcache.StoreCondReq_hits::total           24                       # number of StoreCondReq hits
system.cpu0.dcache.demand_hits::cpu0.data     17513989                       # number of demand (read+write) hits
system.cpu0.dcache.demand_hits::total        17513989                       # number of demand (read+write) hits
system.cpu0.dcache.overall_hits::cpu0.data     17513989                       # number of overall hits
system.cpu0.dcache.overall_hits::total       17513989                       # number of overall hits
system.cpu0.dcache.ReadReq_misses::cpu0.data          225                       # number of ReadReq misses
system.cpu0.dcache.ReadReq_misses::total          225                       # number of ReadReq misses
system.cpu0.dcache.WriteReq_misses::cpu0.data         2418                       # number of WriteReq misses
system.cpu0.dcache.WriteReq_misses::total         2418                       # number of WriteReq misses
system.cpu0.dcache.LoadLockedReq_misses::cpu0.data            3                       # number of LoadLockedReq misses
system.cpu0.dcache.LoadLockedReq_misses::total            3                       # number of LoadLockedReq misses
system.cpu0.dcache.StoreCondReq_misses::cpu0.data            1                       # number of StoreCondReq misses
system.cpu0.dcache.StoreCondReq_misses::total            1                       # number of StoreCondReq misses
system.cpu0.dcache.demand_misses::cpu0.data         2643                       # number of demand (read+write) misses
system.cpu0.dcache.demand_misses::total          2643                       # number of demand (read+write) misses
system.cpu0.dcache.overall_misses::cpu0.data         2643                       # number of overall misses
system.cpu0.dcache.overall_misses::total         2643                       # number of overall misses
system.cpu0.dcache.ReadReq_miss_latency::cpu0.data      9823490                       # number of ReadReq miss cycles
system.cpu0.dcache.ReadReq_miss_latency::total      9823490                       # number of ReadReq miss cycles
system.cpu0.dcache.WriteReq_miss_latency::cpu0.data    118482000                       # number of WriteReq miss cycles
system.cpu0.dcache.WriteReq_miss_latency::total    118482000                       # number of WriteReq miss cycles
system.cpu0.dcache.LoadLockedReq_miss_latency::cpu0.data       133500                       # number of LoadLockedReq miss cycles
system.cpu0.dcache.LoadLockedReq_miss_latency::total       133500                       # number of LoadLockedReq miss cycles
system.cpu0.dcache.StoreCondReq_miss_latency::cpu0.data         7500                       # number of StoreCondReq miss cycles
system.cpu0.dcache.StoreCondReq_miss_latency::total         7500                       # number of StoreCondReq miss cycles
system.cpu0.dcache.demand_miss_latency::cpu0.data    128305490                       # number of demand (read+write) miss cycles
system.cpu0.dcache.demand_miss_latency::total    128305490                       # number of demand (read+write) miss cycles
system.cpu0.dcache.overall_miss_latency::cpu0.data    128305490                       # number of overall miss cycles
system.cpu0.dcache.overall_miss_latency::total    128305490                       # number of overall miss cycles
system.cpu0.dcache.ReadReq_accesses::cpu0.data      8757682                       # number of ReadReq accesses(hits+misses)
system.cpu0.dcache.ReadReq_accesses::total      8757682                       # number of ReadReq accesses(hits+misses)
system.cpu0.dcache.WriteReq_accesses::cpu0.data      8758950                       # number of WriteReq accesses(hits+misses)
system.cpu0.dcache.WriteReq_accesses::total      8758950                       # number of WriteReq accesses(hits+misses)
system.cpu0.dcache.LoadLockedReq_accesses::cpu0.data           25                       # number of LoadLockedReq accesses(hits+misses)
system.cpu0.dcache.LoadLockedReq_accesses::total           25                       # number of LoadLockedReq accesses(hits+misses)
system.cpu0.dcache.StoreCondReq_accesses::cpu0.data           25                       # number of StoreCondReq accesses(hits+misses)
system.cpu0.dcache.StoreCondReq_accesses::total           25                       # number of StoreCondReq accesses(hits+misses)
system.cpu0.dcache.demand_accesses::cpu0.data     17516632                       # number of demand (read+write) accesses
system.cpu0.dcache.demand_accesses::total     17516632                       # number of demand (read+write) accesses
system.cpu0.dcache.overall_accesses::cpu0.data     17516632                       # number of overall (read+write) accesses
system.cpu0.dcache.overall_accesses::total     17516632                       # number of overall (read+write) accesses
system.cpu0.dcache.ReadReq_miss_rate::cpu0.data     0.000026                       # miss rate for ReadReq accesses
system.cpu0.dcache.ReadReq_miss_rate::total     0.000026                       # miss rate for ReadReq accesses
system.cpu0.dcache.WriteReq_miss_rate::cpu0.data     0.000276                       # miss rate for WriteReq accesses
system.cpu0.dcache.WriteReq_miss_rate::total     0.000276                       # miss rate for WriteReq accesses
system.cpu0.dcache.LoadLockedReq_miss_rate::cpu0.data     0.120000                       # miss rate for LoadLockedReq accesses
system.cpu0.dcache.LoadLockedReq_miss_rate::total     0.120000                       # miss rate for LoadLockedReq accesses
system.cpu0.dcache.StoreCondReq_miss_rate::cpu0.data     0.040000                       # miss rate for StoreCondReq accesses
system.cpu0.dcache.StoreCondReq_miss_rate::total     0.040000                       # miss rate for StoreCondReq accesses
system.cpu0.dcache.demand_miss_rate::cpu0.data     0.000151                       # miss rate for demand accesses
system.cpu0.dcache.demand_miss_rate::total     0.000151                       # miss rate for demand accesses
system.cpu0.dcache.overall_miss_rate::cpu0.data     0.000151                       # miss rate for overall accesses
system.cpu0.dcache.overall_miss_rate::total     0.000151                       # miss rate for overall accesses
system.cpu0.dcache.ReadReq_avg_miss_latency::cpu0.data 43659.955556                       # average ReadReq miss latency
system.cpu0.dcache.ReadReq_avg_miss_latency::total 43659.955556                       # average ReadReq miss latency
system.cpu0.dcache.WriteReq_avg_miss_latency::cpu0.data        49000                       # average WriteReq miss latency
system.cpu0.dcache.WriteReq_avg_miss_latency::total        49000                       # average WriteReq miss latency
system.cpu0.dcache.LoadLockedReq_avg_miss_latency::cpu0.data        44500                       # average LoadLockedReq miss latency
system.cpu0.dcache.LoadLockedReq_avg_miss_latency::total        44500                       # average LoadLockedReq miss latency
system.cpu0.dcache.StoreCondReq_avg_miss_latency::cpu0.data         7500                       # average StoreCondReq miss latency
system.cpu0.dcache.StoreCondReq_avg_miss_latency::total         7500                       # average StoreCondReq miss latency
system.cpu0.dcache.demand_avg_miss_latency::cpu0.data 48545.399168                       # average overall miss latency
system.cpu0.dcache.demand_avg_miss_latency::total 48545.399168                       # average overall miss latency
system.cpu0.dcache.overall_avg_miss_latency::cpu0.data 48545.399168                       # average overall miss latency
system.cpu0.dcache.overall_avg_miss_latency::total 48545.399168                       # average overall miss latency
system.cpu0.dcache.blocked_cycles::no_mshrs            0                       # number of cycles access was blocked
system.cpu0.dcache.blocked_cycles::no_targets            0                       # number of cycles access was blocked
system.cpu0.dcache.blocked::no_mshrs                0                       # number of cycles access was blocked
system.cpu0.dcache.blocked::no_targets              0                       # number of cycles access was blocked
system.cpu0.dcache.avg_blocked_cycles::no_mshrs          nan                       # average number of cycles each access was blocked
system.cpu0.dcache.avg_blocked_cycles::no_targets          nan                       # average number of cycles each access was blocked
system.cpu0.dcache.fast_writes                      0                       # number of fast writes performed
system.cpu0.dcache.cache_copies                     0                       # number of cache copies performed
system.cpu0.dcache.writebacks::writebacks           20                       # number of writebacks
system.cpu0.dcache.writebacks::total               20                       # number of writebacks
system.cpu0.dcache.ReadReq_mshr_hits::cpu0.data           80                       # number of ReadReq MSHR hits
system.cpu0.dcache.ReadReq_mshr_hits::total           80                       # number of ReadReq MSHR hits
system.cpu0.dcache.WriteReq_mshr_hits::cpu0.data         2220                       # number of WriteReq MSHR hits
system.cpu0.dcache.WriteReq_mshr_hits::total         2220                       # number of WriteReq MSHR hits
system.cpu0.dcache.LoadLockedReq_mshr_hits::cpu0.data            3                       # number of LoadLockedReq MSHR hits
system.cpu0.dcache.LoadLockedReq_mshr_hits::total            3                       # number of LoadLockedReq MSHR hits
system.cpu0.dcache.demand_mshr_hits::cpu0.data         2300                       # number of demand (read+write) MSHR hits
system.cpu0.dcache.demand_mshr_hits::total         2300                       # number of demand (read+write) MSHR hits
system.cpu0.dcache.overall_mshr_hits::cpu0.data         2300                       # number of overall MSHR hits
system.cpu0.dcache.overall_mshr_hits::total         2300                       # number of overall MSHR hits
system.cpu0.dcache.ReadReq_mshr_misses::cpu0.data          145                       # number of ReadReq MSHR misses
system.cpu0.dcache.ReadReq_mshr_misses::total          145                       # number of ReadReq MSHR misses
system.cpu0.dcache.WriteReq_mshr_misses::cpu0.data          198                       # number of WriteReq MSHR misses
system.cpu0.dcache.WriteReq_mshr_misses::total          198                       # number of WriteReq MSHR misses
system.cpu0.dcache.StoreCondReq_mshr_misses::cpu0.data            1                       # number of StoreCondReq MSHR misses
system.cpu0.dcache.StoreCondReq_mshr_misses::total            1                       # number of StoreCondReq MSHR misses
system.cpu0.dcache.demand_mshr_misses::cpu0.data          343                       # number of demand (read+write) MSHR misses
system.cpu0.dcache.demand_mshr_misses::total          343                       # number of demand (read+write) MSHR misses
system.cpu0.dcache.overall_mshr_misses::cpu0.data          343                       # number of overall MSHR misses
system.cpu0.dcache.overall_mshr_misses::total          343                       # number of overall MSHR misses
system.cpu0.dcache.ReadReq_mshr_miss_latency::cpu0.data      6130006                       # number of ReadReq MSHR miss cycles
system.cpu0.dcache.ReadReq_mshr_miss_latency::total      6130006                       # number of ReadReq MSHR miss cycles
system.cpu0.dcache.WriteReq_mshr_miss_latency::cpu0.data     10801500                       # number of WriteReq MSHR miss cycles
system.cpu0.dcache.WriteReq_mshr_miss_latency::total     10801500                       # number of WriteReq MSHR miss cycles
system.cpu0.dcache.StoreCondReq_mshr_miss_latency::cpu0.data         4500                       # number of StoreCondReq MSHR miss cycles
system.cpu0.dcache.StoreCondReq_mshr_miss_latency::total         4500                       # number of StoreCondReq MSHR miss cycles
system.cpu0.dcache.demand_mshr_miss_latency::cpu0.data     16931506                       # number of demand (read+write) MSHR miss cycles
system.cpu0.dcache.demand_mshr_miss_latency::total     16931506                       # number of demand (read+write) MSHR miss cycles
system.cpu0.dcache.overall_mshr_miss_latency::cpu0.data     16931506                       # number of overall MSHR miss cycles
system.cpu0.dcache.overall_mshr_miss_latency::total     16931506                       # number of overall MSHR miss cycles
system.cpu0.dcache.ReadReq_mshr_miss_rate::cpu0.data     0.000017                       # mshr miss rate for ReadReq accesses
system.cpu0.dcache.ReadReq_mshr_miss_rate::total     0.000017                       # mshr miss rate for ReadReq accesses
system.cpu0.dcache.WriteReq_mshr_miss_rate::cpu0.data     0.000023                       # mshr miss rate for WriteReq accesses
system.cpu0.dcache.WriteReq_mshr_miss_rate::total     0.000023                       # mshr miss rate for WriteReq accesses
system.cpu0.dcache.StoreCondReq_mshr_miss_rate::cpu0.data     0.040000                       # mshr miss rate for StoreCondReq accesses
system.cpu0.dcache.StoreCondReq_mshr_miss_rate::total     0.040000                       # mshr miss rate for StoreCondReq accesses
system.cpu0.dcache.demand_mshr_miss_rate::cpu0.data     0.000020                       # mshr miss rate for demand accesses
system.cpu0.dcache.demand_mshr_miss_rate::total     0.000020                       # mshr miss rate for demand accesses
system.cpu0.dcache.overall_mshr_miss_rate::cpu0.data     0.000020                       # mshr miss rate for overall accesses
system.cpu0.dcache.overall_mshr_miss_rate::total     0.000020                       # mshr miss rate for overall accesses
system.cpu0.dcache.ReadReq_avg_mshr_miss_latency::cpu0.data 42275.903448                       # average ReadReq mshr miss latency
system.cpu0.dcache.ReadReq_avg_mshr_miss_latency::total 42275.903448                       # average ReadReq mshr miss latency
system.cpu0.dcache.WriteReq_avg_mshr_miss_latency::cpu0.data 54553.030303                       # average WriteReq mshr miss latency
system.cpu0.dcache.WriteReq_avg_mshr_miss_latency::total 54553.030303                       # average WriteReq mshr miss latency
system.cpu0.dcache.StoreCondReq_avg_mshr_miss_latency::cpu0.data         4500                       # average StoreCondReq mshr miss latency
system.cpu0.dcache.StoreCondReq_avg_mshr_miss_latency::total         4500                       # average StoreCondReq mshr miss latency
system.cpu0.dcache.demand_avg_mshr_miss_latency::cpu0.data 49362.991254                       # average overall mshr miss latency
system.cpu0.dcache.demand_avg_mshr_miss_latency::total 49362.991254                       # average overall mshr miss latency
system.cpu0.dcache.overall_avg_mshr_miss_latency::cpu0.data 49362.991254                       # average overall mshr miss latency
system.cpu0.dcache.overall_avg_mshr_miss_latency::total 49362.991254                       # average overall mshr miss latency
system.cpu0.dcache.no_allocate_misses               0                       # Number of misses that were no-allocate
system.cpu0.icache.tags.replacements               70                       # number of replacements
system.cpu0.icache.tags.tagsinuse          287.816105                       # Cycle average of tags in use
system.cpu0.icache.tags.total_refs               2090                       # Total number of references to valid blocks.
[...]
system.l2.demand_avg_mshr_miss_latency::cpu8.data 40849.137931                       # average overall mshr miss latency
system.l2.demand_avg_mshr_miss_latency::total 40683.968956                       # average overall mshr miss latency
system.l2.overall_avg_mshr_miss_latency::cpu0.inst 41067.988669                       # average overall mshr miss latency
system.l2.overall_avg_mshr_miss_latency::cpu0.data 41268.292683                       # average overall mshr miss latency
system.l2.overall_avg_mshr_miss_latency::cpu1.inst 40783.783784                       # average overall mshr miss latency
system.l2.overall_avg_mshr_miss_latency::cpu1.data 41061.538462                       # average overall mshr miss latency
system.l2.overall_avg_mshr_miss_latency::cpu2.inst        41425                       # average overall mshr miss latency
system.l2.overall_avg_mshr_miss_latency::cpu2.data 40650.619638                       # average overall mshr miss latency
system.l2.overall_avg_mshr_miss_latency::cpu3.inst 40692.307692                       # average overall mshr miss latency
system.l2.overall_avg_mshr_miss_latency::cpu3.data 40760.747664                       # average overall mshr miss latency
system.l2.overall_avg_mshr_miss_latency::cpu4.inst 40688.679245                       # average overall mshr miss latency
system.l2.overall_avg_mshr_miss_latency::cpu4.data 40583.295299                       # average overall mshr miss latency
system.l2.overall_avg_mshr_miss_latency::cpu5.inst 42279.411765                       # average overall mshr miss latency
system.l2.overall_avg_mshr_miss_latency::cpu5.data 40578.665368                       # average overall mshr miss latency
system.l2.overall_avg_mshr_miss_latency::cpu6.inst        40675                       # average overall mshr miss latency
system.l2.overall_avg_mshr_miss_latency::cpu6.data 40598.446894                       # average overall mshr miss latency
system.l2.overall_avg_mshr_miss_latency::cpu7.inst 40805.555556                       # average overall mshr miss latency
system.l2.overall_avg_mshr_miss_latency::cpu7.data 40613.939394                       # average overall mshr miss latency
system.l2.overall_avg_mshr_miss_latency::cpu8.inst 40760.273973                       # average overall mshr miss latency
system.l2.overall_avg_mshr_miss_latency::cpu8.data 40849.137931                       # average overall mshr miss latency
system.l2.overall_avg_mshr_miss_latency::total 40683.968956                       # average overall mshr miss latency
system.l2.no_allocate_misses                        0                       # Number of misses that were no-allocate
system.membus.trans_dist::ReadReq               10915                       # Transaction distribution
system.membus.trans_dist::ReadResp              10915                       # Transaction distribution
system.membus.trans_dist::Writeback               203                       # Transaction distribution
system.membus.trans_dist::UpgradeReq           211743                       # Transaction distribution
system.membus.trans_dist::SCUpgradeReq         210176                       # Transaction distribution
system.membus.trans_dist::UpgradeResp          172677                       # Transaction distribution
system.membus.trans_dist::SCUpgradeFailReq          326                       # Transaction distribution
system.membus.trans_dist::ReadExReq              6091                       # Transaction distribution
system.membus.trans_dist::ReadExResp             1065                       # Transaction distribution
system.membus.pkt_count_system.l2.mem_side::system.physmem.port       624111                       # Packet count per connected master and slave (bytes)
system.membus.pkt_count::total                 624111                       # Packet count per connected master and slave (bytes)
system.membus.pkt_size_system.l2.mem_side::system.physmem.port       779712                       # Cumulative packet size per connected master and slave (bytes)
system.membus.pkt_size::total                  779712                       # Cumulative packet size per connected master and slave (bytes)
system.membus.snoops                           254594                       # Total snoops (count)
system.membus.snoop_fanout::samples            440251                       # Request fanout histogram
system.membus.snoop_fanout::mean                    0                       # Request fanout histogram
system.membus.snoop_fanout::stdev                   0                       # Request fanout histogram
system.membus.snoop_fanout::underflows              0      0.00%      0.00% # Request fanout histogram
system.membus.snoop_fanout::0                  440251    100.00%    100.00% # Request fanout histogram
system.membus.snoop_fanout::1                       0      0.00%    100.00% # Request fanout histogram
system.membus.snoop_fanout::overflows               0      0.00%    100.00% # Request fanout histogram
system.membus.snoop_fanout::min_value               0                       # Request fanout histogram
system.membus.snoop_fanout::max_value               0                       # Request fanout histogram
system.membus.snoop_fanout::total              440251                       # Request fanout histogram
system.membus.reqLayer0.occupancy           263146514                       # Layer occupancy (ticks)
system.membus.reqLayer0.utilization               1.5                       # Layer utilization (%)
system.membus.respLayer1.occupancy          308459611                       # Layer occupancy (ticks)
system.membus.respLayer1.utilization              1.8                       # Layer utilization (%)
system.tol2bus.trans_dist::ReadReq            1635309                       # Transaction distribution
system.tol2bus.trans_dist::ReadResp           1632933                       # Transaction distribution
system.tol2bus.trans_dist::ReadRespWithInvalidate         2376                       # Transaction distribution
system.tol2bus.trans_dist::Writeback              867                       # Transaction distribution
system.tol2bus.trans_dist::UpgradeReq          211746                       # Transaction distribution
system.tol2bus.trans_dist::SCUpgradeReq        210180                       # Transaction distribution
system.tol2bus.trans_dist::UpgradeResp         421926                       # Transaction distribution
system.tol2bus.trans_dist::SCUpgradeFailReq        50414                       # Transaction distribution
system.tol2bus.trans_dist::UpgradeFailResp        50414                       # Transaction distribution
system.tol2bus.trans_dist::ReadExReq            15325                       # Transaction distribution
system.tol2bus.trans_dist::ReadExResp           15325                       # Transaction distribution
system.tol2bus.pkt_count_system.cpu0.icache.mem_side::system.l2.cpu_side          776                       # Packet count per connected master and slave (bytes)
system.tol2bus.pkt_count_system.cpu0.dcache.mem_side::system.l2.cpu_side          694                       # Packet count per connected master and slave (bytes)
system.tol2bus.pkt_count_system.cpu1.icache.mem_side::system.l2.cpu_side         2288                       # Packet count per connected master and slave (bytes)
system.tol2bus.pkt_count_system.cpu1.dcache.mem_side::system.l2.cpu_side       164680                       # Packet count per connected master and slave (bytes)
system.tol2bus.pkt_count_system.cpu2.icache.mem_side::system.l2.cpu_side         2132                       # Packet count per connected master and slave (bytes)
system.tol2bus.pkt_count_system.cpu2.dcache.mem_side::system.l2.cpu_side       249160                       # Packet count per connected master and slave (bytes)
system.tol2bus.pkt_count_system.cpu3.icache.mem_side::system.l2.cpu_side         2108                       # Packet count per connected master and slave (bytes)
system.tol2bus.pkt_count_system.cpu3.dcache.mem_side::system.l2.cpu_side       275604                       # Packet count per connected master and slave (bytes)
system.tol2bus.pkt_count_system.cpu4.icache.mem_side::system.l2.cpu_side         2194                       # Packet count per connected master and slave (bytes)
system.tol2bus.pkt_count_system.cpu4.dcache.mem_side::system.l2.cpu_side       339970                       # Packet count per connected master and slave (bytes)
system.tol2bus.pkt_count_system.cpu5.icache.mem_side::system.l2.cpu_side         2122                       # Packet count per connected master and slave (bytes)
system.tol2bus.pkt_count_system.cpu5.dcache.mem_side::system.l2.cpu_side       366600                       # Packet count per connected master and slave (bytes)
system.tol2bus.pkt_count_system.cpu6.icache.mem_side::system.l2.cpu_side         2168                       # Packet count per connected master and slave (bytes)
system.tol2bus.pkt_count_system.cpu6.dcache.mem_side::system.l2.cpu_side       327462                       # Packet count per connected master and slave (bytes)
system.tol2bus.pkt_count_system.cpu7.icache.mem_side::system.l2.cpu_side         2168                       # Packet count per connected master and slave (bytes)
system.tol2bus.pkt_count_system.cpu7.dcache.mem_side::system.l2.cpu_side       351550                       # Packet count per connected master and slave (bytes)
system.tol2bus.pkt_count_system.cpu8.icache.mem_side::system.l2.cpu_side         2178                       # Packet count per connected master and slave (bytes)
system.tol2bus.pkt_count_system.cpu8.dcache.mem_side::system.l2.cpu_side       239545                       # Packet count per connected master and slave (bytes)
system.tol2bus.pkt_count::total               2333399                       # Packet count per connected master and slave (bytes)
system.tol2bus.pkt_size_system.cpu0.icache.mem_side::system.l2.cpu_side        24832                       # Cumulative packet size per connected master and slave (bytes)
system.tol2bus.pkt_size_system.cpu0.dcache.mem_side::system.l2.cpu_side        22208                       # Cumulative packet size per connected master and slave (bytes)
system.tol2bus.pkt_size_system.cpu1.icache.mem_side::system.l2.cpu_side        73216                       # Cumulative packet size per connected master and slave (bytes)
system.tol2bus.pkt_size_system.cpu1.dcache.mem_side::system.l2.cpu_side        60160                       # Cumulative packet size per connected master and slave (bytes)
system.tol2bus.pkt_size_system.cpu2.icache.mem_side::system.l2.cpu_side        68224                       # Cumulative packet size per connected master and slave (bytes)
system.tol2bus.pkt_size_system.cpu2.dcache.mem_side::system.l2.cpu_side       165760                       # Cumulative packet size per connected master and slave (bytes)
system.tol2bus.pkt_size_system.cpu3.icache.mem_side::system.l2.cpu_side        67456                       # Cumulative packet size per connected master and slave (bytes)
system.tol2bus.pkt_size_system.cpu3.dcache.mem_side::system.l2.cpu_side       189888                       # Cumulative packet size per connected master and slave (bytes)
system.tol2bus.pkt_size_system.cpu4.icache.mem_side::system.l2.cpu_side        70208                       # Cumulative packet size per connected master and slave (bytes)
system.tol2bus.pkt_size_system.cpu4.dcache.mem_side::system.l2.cpu_side       296960                       # Cumulative packet size per connected master and slave (bytes)
system.tol2bus.pkt_size_system.cpu5.icache.mem_side::system.l2.cpu_side        67904                       # Cumulative packet size per connected master and slave (bytes)
system.tol2bus.pkt_size_system.cpu5.dcache.mem_side::system.l2.cpu_side       375552                       # Cumulative packet size per connected master and slave (bytes)
system.tol2bus.pkt_size_system.cpu6.icache.mem_side::system.l2.cpu_side        69376                       # Cumulative packet size per connected master and slave (bytes)
system.tol2bus.pkt_size_system.cpu6.dcache.mem_side::system.l2.cpu_side       363520                       # Cumulative packet size per connected master and slave (bytes)
system.tol2bus.pkt_size_system.cpu7.icache.mem_side::system.l2.cpu_side        69376                       # Cumulative packet size per connected master and slave (bytes)
system.tol2bus.pkt_size_system.cpu7.dcache.mem_side::system.l2.cpu_side       246464                       # Cumulative packet size per connected master and slave (bytes)
system.tol2bus.pkt_size_system.cpu8.icache.mem_side::system.l2.cpu_side        69696                       # Cumulative packet size per connected master and slave (bytes)
system.tol2bus.pkt_size_system.cpu8.dcache.mem_side::system.l2.cpu_side       114624                       # Cumulative packet size per connected master and slave (bytes)
system.tol2bus.pkt_size::total                2415424                       # Cumulative packet size per connected master and slave (bytes)
system.tol2bus.snoops                         1913416                       # Total snoops (count)
system.tol2bus.snoop_fanout::samples          2123841                       # Request fanout histogram
system.tol2bus.snoop_fanout::mean                  17                       # Request fanout histogram
system.tol2bus.snoop_fanout::stdev                  0                       # Request fanout histogram
system.tol2bus.snoop_fanout::underflows             0      0.00%      0.00% # Request fanout histogram
system.tol2bus.snoop_fanout::0                      0      0.00%      0.00% # Request fanout histogram
system.tol2bus.snoop_fanout::1                      0      0.00%      0.00% # Request fanout histogram
system.tol2bus.snoop_fanout::2                      0      0.00%      0.00% # Request fanout histogram
system.tol2bus.snoop_fanout::3                      0      0.00%      0.00% # Request fanout histogram
system.tol2bus.snoop_fanout::4                      0      0.00%      0.00% # Request fanout histogram
system.tol2bus.snoop_fanout::5                      0      0.00%      0.00% # Request fanout histogram
system.tol2bus.snoop_fanout::6                      0      0.00%      0.00% # Request fanout histogram
system.tol2bus.snoop_fanout::7                      0      0.00%      0.00% # Request fanout histogram
system.tol2bus.snoop_fanout::8                      0      0.00%      0.00% # Request fanout histogram
system.tol2bus.snoop_fanout::9                      0      0.00%      0.00% # Request fanout histogram
system.tol2bus.snoop_fanout::10                     0      0.00%      0.00% # Request fanout histogram
system.tol2bus.snoop_fanout::11                     0      0.00%      0.00% # Request fanout histogram
system.tol2bus.snoop_fanout::12                     0      0.00%      0.00% # Request fanout histogram
system.tol2bus.snoop_fanout::13                     0      0.00%      0.00% # Request fanout histogram
system.tol2bus.snoop_fanout::14                     0      0.00%      0.00% # Request fanout histogram
system.tol2bus.snoop_fanout::15                     0      0.00%      0.00% # Request fanout histogram
system.tol2bus.snoop_fanout::16                     0      0.00%      0.00% # Request fanout histogram
system.tol2bus.snoop_fanout::17               2123841    100.00%    100.00% # Request fanout histogram
system.tol2bus.snoop_fanout::18                     0      0.00%    100.00% # Request fanout histogram
system.tol2bus.snoop_fanout::overflows              0      0.00%    100.00% # Request fanout histogram
system.tol2bus.snoop_fanout::min_value             17                       # Request fanout histogram
system.tol2bus.snoop_fanout::max_value             17                       # Request fanout histogram
system.tol2bus.snoop_fanout::total            2123841                       # Request fanout histogram
system.tol2bus.reqLayer0.occupancy         1083262248                       # Layer occupancy (ticks)
system.tol2bus.reqLayer0.utilization              6.2                       # Layer utilization (%)
system.tol2bus.respLayer0.occupancy            582998                       # Layer occupancy (ticks)
system.tol2bus.respLayer0.utilization             0.0                       # Layer utilization (%)
system.tol2bus.respLayer1.occupancy            512994                       # Layer occupancy (ticks)
system.tol2bus.respLayer1.utilization             0.0                       # Layer utilization (%)
system.tol2bus.respLayer4.occupancy           1740918                       # Layer occupancy (ticks)
system.tol2bus.respLayer4.utilization             0.0                       # Layer utilization (%)
system.tol2bus.respLayer5.occupancy         231527963                       # Layer occupancy (ticks)
system.tol2bus.respLayer5.utilization             1.3                       # Layer utilization (%)
system.tol2bus.respLayer8.occupancy           1615449                       # Layer occupancy (ticks)
system.tol2bus.respLayer8.utilization             0.0                       # Layer utilization (%)
system.tol2bus.respLayer9.occupancy         348872184                       # Layer occupancy (ticks)
system.tol2bus.respLayer9.utilization             2.0                       # Layer utilization (%)
system.tol2bus.respLayer12.occupancy          1602933                       # Layer occupancy (ticks)
system.tol2bus.respLayer12.utilization            0.0                       # Layer utilization (%)
system.tol2bus.respLayer13.occupancy        373678620                       # Layer occupancy (ticks)
system.tol2bus.respLayer13.utilization            2.1                       # Layer utilization (%)
system.tol2bus.respLayer16.occupancy          1651983                       # Layer occupancy (ticks)
system.tol2bus.respLayer16.utilization            0.0                       # Layer utilization (%)
system.tol2bus.respLayer17.occupancy        451228838                       # Layer occupancy (ticks)
system.tol2bus.respLayer17.utilization            2.6                       # Layer utilization (%)
system.tol2bus.respLayer20.occupancy          1592995                       # Layer occupancy (ticks)
system.tol2bus.respLayer20.utilization            0.0                       # Layer utilization (%)
system.tol2bus.respLayer21.occupancy        484059916                       # Layer occupancy (ticks)
system.tol2bus.respLayer21.utilization            2.8                       # Layer utilization (%)
system.tol2bus.respLayer24.occupancy          1632985                       # Layer occupancy (ticks)
system.tol2bus.respLayer24.utilization            0.0                       # Layer utilization (%)
system.tol2bus.respLayer25.occupancy        419380196                       # Layer occupancy (ticks)
system.tol2bus.respLayer25.utilization            2.4                       # Layer utilization (%)
system.tol2bus.respLayer28.occupancy          1639955                       # Layer occupancy (ticks)
system.tol2bus.respLayer28.utilization            0.0                       # Layer utilization (%)
system.tol2bus.respLayer29.occupancy        466312310                       # Layer occupancy (ticks)
system.tol2bus.respLayer29.utilization            2.7                       # Layer utilization (%)
system.tol2bus.respLayer32.occupancy          1636985                       # Layer occupancy (ticks)
system.tol2bus.respLayer32.utilization            0.0                       # Layer utilization (%)
system.tol2bus.respLayer33.occupancy        335486416                       # Layer occupancy (ticks)
system.tol2bus.respLayer33.utilization            1.9                       # Layer utilization (%)

---------- End Simulation Statistics   ----------
