
---------- Begin Simulation Statistics ----------
sim_seconds                                  0.040023                       # Number of seconds simulated
sim_ticks                                 40023388000                       # Number of ticks simulated
final_tick                                40023388000                       # Number of ticks from beginning of simulation (restored from checkpoints and never reset)
sim_freq                                 1000000000000                       # Frequency of simulated ticks
host_inst_rate                                 156058                       # Simulator instruction rate (inst/s)
host_op_rate                                   161905                       # Simulator op (including micro ops) rate (op/s)
host_tick_rate                               38421140                       # Simulator tick rate (ticks/s)
host_mem_usage                                 701180                       # Number of bytes of host memory used
host_seconds                                  1041.70                       # Real time elapsed on the host
sim_insts                                   162565900                       # Number of instructions simulated
sim_ops                                     168656866                       # Number of ops (including micro ops) simulated
system.voltage_domain.voltage                       1                       # Voltage in Volts
system.clk_domain.clock                          1000                       # Clock period in ticks
system.physmem.bytes_read::cpu0.inst            20608                       # Number of bytes read from this memory
system.physmem.bytes_read::cpu0.data            17088                       # Number of bytes read from this memory
system.physmem.bytes_read::cpu1.inst             8064                       # Number of bytes read from this memory
system.physmem.bytes_read::cpu1.data          2212992                       # Number of bytes read from this memory
system.physmem.bytes_read::cpu2.inst             2368                       # Number of bytes read from this memory
system.physmem.bytes_read::cpu2.data          2191424                       # Number of bytes read from this memory
system.physmem.bytes_read::cpu3.inst             4096                       # Number of bytes read from this memory
system.physmem.bytes_read::cpu3.data          2336960                       # Number of bytes read from this memory
system.physmem.bytes_read::cpu4.inst             5696                       # Number of bytes read from this memory
system.physmem.bytes_read::cpu4.data          2200640                       # Number of bytes read from this memory
system.physmem.bytes_read::total              8999936                       # Number of bytes read from this memory
system.physmem.bytes_inst_read::cpu0.inst        20608                       # Number of instructions bytes read from this memory
system.physmem.bytes_inst_read::cpu1.inst         8064                       # Number of instructions bytes read from this memory
system.physmem.bytes_inst_read::cpu2.inst         2368                       # Number of instructions bytes read from this memory
system.physmem.bytes_inst_read::cpu3.inst         4096                       # Number of instructions bytes read from this memory
system.physmem.bytes_inst_read::cpu4.inst         5696                       # Number of instructions bytes read from this memory
system.physmem.bytes_inst_read::total           40832                       # Number of instructions bytes read from this memory
system.physmem.bytes_written::writebacks       177216                       # Number of bytes written to this memory
system.physmem.bytes_written::total            177216                       # Number of bytes written to this memory
system.physmem.num_reads::cpu0.inst               322                       # Number of read requests responded to by this memory
system.physmem.num_reads::cpu0.data               267                       # Number of read requests responded to by this memory
system.physmem.num_reads::cpu1.inst               126                       # Number of read requests responded to by this memory
system.physmem.num_reads::cpu1.data             34578                       # Number of read requests responded to by this memory
system.physmem.num_reads::cpu2.inst                37                       # Number of read requests responded to by this memory
system.physmem.num_reads::cpu2.data             34241                       # Number of read requests responded to by this memory
system.physmem.num_reads::cpu3.inst                64                       # Number of read requests responded to by this memory
system.physmem.num_reads::cpu3.data             36515                       # Number of read requests responded to by this memory
system.physmem.num_reads::cpu4.inst                89                       # Number of read requests responded to by this memory
system.physmem.num_reads::cpu4.data             34385                       # Number of read requests responded to by this memory
system.physmem.num_reads::total                140624                       # Number of read requests responded to by this memory
system.physmem.num_writes::writebacks            2769                       # Number of write requests responded to by this memory
system.physmem.num_writes::total                 2769                       # Number of write requests responded to by this memory
system.physmem.bw_read::cpu0.inst              514899                       # Total read bandwidth from this memory (bytes/s)
system.physmem.bw_read::cpu0.data              426950                       # Total read bandwidth from this memory (bytes/s)
system.physmem.bw_read::cpu1.inst              201482                       # Total read bandwidth from this memory (bytes/s)
system.physmem.bw_read::cpu1.data            55292470                       # Total read bandwidth from this memory (bytes/s)
system.physmem.bw_read::cpu2.inst               59165                       # Total read bandwidth from this memory (bytes/s)
system.physmem.bw_read::cpu2.data            54753586                       # Total read bandwidth from this memory (bytes/s)
system.physmem.bw_read::cpu3.inst              102340                       # Total read bandwidth from this memory (bytes/s)
system.physmem.bw_read::cpu3.data            58389859                       # Total read bandwidth from this memory (bytes/s)
system.physmem.bw_read::cpu4.inst              142317                       # Total read bandwidth from this memory (bytes/s)
system.physmem.bw_read::cpu4.data            54983851                       # Total read bandwidth from this memory (bytes/s)
system.physmem.bw_read::total               224866920                       # Total read bandwidth from this memory (bytes/s)
system.physmem.bw_inst_read::cpu0.inst         514899                       # Instruction read bandwidth from this memory (bytes/s)
system.physmem.bw_inst_read::cpu1.inst         201482                       # Instruction read bandwidth from this memory (bytes/s)
system.physmem.bw_inst_read::cpu2.inst          59165                       # Instruction read bandwidth from this memory (bytes/s)
system.physmem.bw_inst_read::cpu3.inst         102340                       # Instruction read bandwidth from this memory (bytes/s)
system.physmem.bw_inst_read::cpu4.inst         142317                       # Instruction read bandwidth from this memory (bytes/s)
system.physmem.bw_inst_read::total            1020203                       # Instruction read bandwidth from this memory (bytes/s)
system.physmem.bw_write::writebacks           4427811                       # Write bandwidth from this memory (bytes/s)
system.physmem.bw_write::total                4427811                       # Write bandwidth from this memory (bytes/s)
system.physmem.bw_total::writebacks           4427811                       # Total bandwidth to/from this memory (bytes/s)
system.physmem.bw_total::cpu0.inst             514899                       # Total bandwidth to/from this memory (bytes/s)
system.physmem.bw_total::cpu0.data             426950                       # Total bandwidth to/from this memory (bytes/s)
system.physmem.bw_total::cpu1.inst             201482                       # Total bandwidth to/from this memory (bytes/s)
system.physmem.bw_total::cpu1.data           55292470                       # Total bandwidth to/from this memory (bytes/s)
system.physmem.bw_total::cpu2.inst              59165                       # Total bandwidth to/from this memory (bytes/s)
system.physmem.bw_total::cpu2.data           54753586                       # Total bandwidth to/from this memory (bytes/s)
system.physmem.bw_total::cpu3.inst             102340                       # Total bandwidth to/from this memory (bytes/s)
system.physmem.bw_total::cpu3.data           58389859                       # Total bandwidth to/from this memory (bytes/s)
system.physmem.bw_total::cpu4.inst             142317                       # Total bandwidth to/from this memory (bytes/s)
system.physmem.bw_total::cpu4.data           54983851                       # Total bandwidth to/from this memory (bytes/s)
system.physmem.bw_total::total              229294731                       # Total bandwidth to/from this memory (bytes/s)
system.cpu0.branchPred.lookups               20001288                       # Number of BP lookups
system.cpu0.branchPred.condPredicted         20000509                       # Number of conditional branches predicted
system.cpu0.branchPred.condIncorrect              513                       # Number of conditional branches incorrect
system.cpu0.branchPred.BTBLookups            19999843                       # Number of BTB lookups
system.cpu0.branchPred.BTBHits               19999503                       # Number of BTB hits
system.cpu0.branchPred.BTBCorrect                   0                       # Number of correct BTB predictions (this stat may not work properly.
system.cpu0.branchPred.BTBHitPct            99.998300                       # BTB Hit Percentage
system.cpu0.branchPred.usedRAS                    257                       # Number of times the RAS was used to get a target.
system.cpu0.branchPred.RASInCorrect                51                       # Number of incorrect RAS predictions.
system.cpu0.dstage2_mmu.stage2_tlb.walker.walks            0                       # Table walker walks requested
system.cpu0.dstage2_mmu.stage2_tlb.walker.walkRequestOrigin_Requested::Data            0                       # Table walker requests started/completed, data/inst
system.cpu0.dstage2_mmu.stage2_tlb.walker.walkRequestOrigin_Requested::Inst            0                       # Table walker requests started/completed, data/inst
system.cpu0.dstage2_mmu.stage2_tlb.walker.walkRequestOrigin_Requested::total            0                       # Table walker requests started/completed, data/inst
system.cpu0.dstage2_mmu.stage2_tlb.walker.walkRequestOrigin_Completed::Data            0                       # Table walker requests started/completed, data/inst
system.cpu0.dstage2_mmu.stage2_tlb.walker.walkRequestOrigin_Completed::Inst            0                       # Table walker requests started/completed, data/inst
system.cpu0.dstage2_mmu.stage2_tlb.walker.walkRequestOrigin_Completed::total            0                       # Table walker requests started/completed, data/inst
system.cpu0.dstage2_mmu.stage2_tlb.walker.walkRequestOrigin::total            0                       # Table walker requests started/completed, data/inst
system.cpu0.dstage2_mmu.stage2_tlb.inst_hits            0                       # ITB inst hits
system.cpu0.dstage2_mmu.stage2_tlb.inst_misses            0                       # ITB inst misses
system.cpu0.dstage2_mmu.stage2_tlb.read_hits            0                       # DTB read hits
system.cpu0.dstage2_mmu.stage2_tlb.read_misses            0                       # DTB read misses
system.cpu0.dstage2_mmu.stage2_tlb.write_hits            0                       # DTB write hits
system.cpu0.dstage2_mmu.stage2_tlb.write_misses            0                       # DTB write misses
system.cpu0.dstage2_mmu.stage2_tlb.flush_tlb            0                       # Number of times complete TLB was flushed
system.cpu0.dstage2_mmu.stage2_tlb.flush_tlb_mva            0                       # Number of times TLB was flushed by MVA
system.cpu0.dstage2_mmu.stage2_tlb.flush_tlb_mva_asid            0                       # Number of times TLB was flushed by MVA & ASID
system.cpu0.dstage2_mmu.stage2_tlb.flush_tlb_asid            0                       # Number of times TLB was flushed by ASID
system.cpu0.dstage2_mmu.stage2_tlb.flush_entries            0                       # Number of entries that have been flushed from TLB
system.cpu0.dstage2_mmu.stage2_tlb.align_faults            0                       # Number of TLB faults due to alignment restrictions
system.cpu0.dstage2_mmu.stage2_tlb.prefetch_faults            0                       # Number of TLB faults due to prefetch
system.cpu0.dstage2_mmu.stage2_tlb.domain_faults            0                       # Number of TLB faults due to domain restrictions
system.cpu0.dstage2_mmu.stage2_tlb.perms_faults            0                       # Number of TLB faults due to permissions restrictions
system.cpu0.dstage2_mmu.stage2_tlb.read_accesses            0                       # DTB read accesses
system.cpu0.dstage2_mmu.stage2_tlb.write_accesses            0                       # DTB write accesses
system.cpu0.dstage2_mmu.stage2_tlb.inst_accesses            0                       # ITB inst accesses
system.cpu0.dstage2_mmu.stage2_tlb.hits             0                       # DTB hits
system.cpu0.dstage2_mmu.stage2_tlb.misses            0                       # DTB misses
system.cpu0.dstage2_mmu.stage2_tlb.accesses            0                       # DTB accesses
system.cpu0.dtb.walker.walks                        0                       # Table walker walks requested
system.cpu0.dtb.walker.walkRequestOrigin_Requested::Data            0                       # Table walker requests started/completed, data/inst
system.cpu0.dtb.walker.walkRequestOrigin_Requested::Inst            0                       # Table walker requests started/completed, data/inst
system.cpu0.dtb.walker.walkRequestOrigin_Requested::total            0                       # Table walker requests started/completed, data/inst
system.cpu0.dtb.walker.walkRequestOrigin_Completed::Data            0                       # Table walker requests started/completed, data/inst
system.cpu0.dtb.walker.walkRequestOrigin_Completed::Inst            0                       # Table walker requests started/completed, data/inst
system.cpu0.dtb.walker.walkRequestOrigin_Completed::total            0                       # Table walker requests started/completed, data/inst
system.cpu0.dtb.walker.walkRequestOrigin::total            0                       # Table walker requests started/completed, data/inst
system.cpu0.dtb.inst_hits                           0                       # ITB inst hits
system.cpu0.dtb.inst_misses                         0                       # ITB inst misses
system.cpu0.dtb.read_hits                           0                       # DTB read hits
system.cpu0.dtb.read_misses                         0                       # DTB read misses
system.cpu0.dtb.write_hits                          0                       # DTB write hits
system.cpu0.dtb.write_misses                        0                       # DTB write misses
system.cpu0.dtb.flush_tlb                           0                       # Number of times complete TLB was flushed
system.cpu0.dtb.flush_tlb_mva                       0                       # Number of times TLB was flushed by MVA
system.cpu0.dtb.flush_tlb_mva_asid                  0                       # Number of times TLB was flushed by MVA & ASID
system.cpu0.dtb.flush_tlb_asid                      0                       # Number of times TLB was flushed by ASID
system.cpu0.dtb.flush_entries                       0                       # Number of entries that have been flushed from TLB
system.cpu0.dtb.align_faults                        0                       # Number of TLB faults due to alignment restrictions
system.cpu0.dtb.prefetch_faults                     0                       # Number of TLB faults due to prefetch
system.cpu0.dtb.domain_faults                       0                       # Number of TLB faults due to domain restrictions
system.cpu0.dtb.perms_faults                        0                       # Number of TLB faults due to permissions restrictions
system.cpu0.dtb.read_accesses                       0                       # DTB read accesses
system.cpu0.dtb.write_accesses                      0                       # DTB write accesses
system.cpu0.dtb.inst_accesses                       0                       # ITB inst accesses
system.cpu0.dtb.hits                                0                       # DTB hits
system.cpu0.dtb.misses                              0                       # DTB misses
system.cpu0.dtb.accesses                            0                       # DTB accesses
system.cpu0.istage2_mmu.stage2_tlb.walker.walks            0                       # Table walker walks requested
system.cpu0.istage2_mmu.stage2_tlb.walker.walkRequestOrigin_Requested::Data            0                       # Table walker requests started/completed, data/inst
system.cpu0.istage2_mmu.stage2_tlb.walker.walkRequestOrigin_Requested::Inst            0                       # Table walker requests started/completed, data/inst
system.cpu0.istage2_mmu.stage2_tlb.walker.walkRequestOrigin_Requested::total            0                       # Table walker requests started/completed, data/inst
system.cpu0.istage2_mmu.stage2_tlb.walker.walkRequestOrigin_Completed::Data            0                       # Table walker requests started/completed, data/inst
system.cpu0.istage2_mmu.stage2_tlb.walker.walkRequestOrigin_Completed::Inst            0                       # Table walker requests started/completed, data/inst
system.cpu0.istage2_mmu.stage2_tlb.walker.walkRequestOrigin_Completed::total            0                       # Table walker requests started/completed, data/inst
system.cpu0.istage2_mmu.stage2_tlb.walker.walkRequestOrigin::total            0                       # Table walker requests started/completed, data/inst
system.cpu0.istage2_mmu.stage2_tlb.inst_hits            0                       # ITB inst hits
system.cpu0.istage2_mmu.stage2_tlb.inst_misses            0                       # ITB inst misses
system.cpu0.istage2_mmu.stage2_tlb.read_hits            0                       # DTB read hits
system.cpu0.istage2_mmu.stage2_tlb.read_misses            0                       # DTB read misses
system.cpu0.istage2_mmu.stage2_tlb.write_hits            0                       # DTB write hits
system.cpu0.istage2_mmu.stage2_tlb.write_misses            0                       # DTB write misses
system.cpu0.istage2_mmu.stage2_tlb.flush_tlb            0                       # Number of times complete TLB was flushed
system.cpu0.istage2_mmu.stage2_tlb.flush_tlb_mva            0                       # Number of times TLB was flushed by MVA
system.cpu0.istage2_mmu.stage2_tlb.flush_tlb_mva_asid            0                       # Number of times TLB was flushed by MVA & ASID
system.cpu0.istage2_mmu.stage2_tlb.flush_tlb_asid            0                       # Number of times TLB was flushed by ASID
system.cpu0.istage2_mmu.stage2_tlb.flush_entries            0                       # Number of entries that have been flushed from TLB
system.cpu0.istage2_mmu.stage2_tlb.align_faults            0                       # Number of TLB faults due to alignment restrictions
system.cpu0.istage2_mmu.stage2_tlb.prefetch_faults            0                       # Number of TLB faults due to prefetch
system.cpu0.istage2_mmu.stage2_tlb.domain_faults            0                       # Number of TLB faults due to domain restrictions
system.cpu0.istage2_mmu.stage2_tlb.perms_faults            0                       # Number of TLB faults due to permissions restrictions
system.cpu0.istage2_mmu.stage2_tlb.read_accesses            0                       # DTB read accesses
system.cpu0.istage2_mmu.stage2_tlb.write_accesses            0                       # DTB write accesses
system.cpu0.istage2_mmu.stage2_tlb.inst_accesses            0                       # ITB inst accesses
system.cpu0.istage2_mmu.stage2_tlb.hits             0                       # DTB hits
system.cpu0.istage2_mmu.stage2_tlb.misses            0                       # DTB misses
system.cpu0.istage2_mmu.stage2_tlb.accesses            0                       # DTB accesses
system.cpu0.itb.walker.walks                        0                       # Table walker walks requested
system.cpu0.itb.walker.walkRequestOrigin_Requested::Data            0                       # Table walker requests started/completed, data/inst
system.cpu0.itb.walker.walkRequestOrigin_Requested::Inst            0                       # Table walker requests started/completed, data/inst
system.cpu0.itb.walker.walkRequestOrigin_Requested::total            0                       # Table walker requests started/completed, data/inst
system.cpu0.itb.walker.walkRequestOrigin_Completed::Data            0                       # Table walker requests started/completed, data/inst
system.cpu0.itb.walker.walkRequestOrigin_Completed::Inst            0                       # Table walker requests started/completed, data/inst
system.cpu0.itb.walker.walkRequestOrigin_Completed::total            0                       # Table walker requests started/completed, data/inst
system.cpu0.itb.walker.walkRequestOrigin::total            0                       # Table walker requests started/completed, data/inst
system.cpu0.itb.inst_hits                           0                       # ITB inst hits
system.cpu0.itb.inst_misses                         0                       # ITB inst misses
system.cpu0.itb.read_hits                           0                       # DTB read hits
system.cpu0.itb.read_misses                         0                       # DTB read misses
system.cpu0.itb.write_hits                          0                       # DTB write hits
system.cpu0.itb.write_misses                        0                       # DTB write misses
system.cpu0.itb.flush_tlb                           0                       # Number of times complete TLB was flushed
system.cpu0.itb.flush_tlb_mva                       0                       # Number of times TLB was flushed by MVA
system.cpu0.itb.flush_tlb_mva_asid                  0                       # Number of times TLB was flushed by MVA & ASID
system.cpu0.itb.flush_tlb_asid                      0                       # Number of times TLB was flushed by ASID
system.cpu0.itb.flush_entries                       0                       # Number of entries that have been flushed from TLB
system.cpu0.itb.align_faults                        0                       # Number of TLB faults due to alignment restrictions
system.cpu0.itb.prefetch_faults                     0                       # Number of TLB faults due to prefetch
system.cpu0.itb.domain_faults                       0                       # Number of TLB faults due to domain restrictions
system.cpu0.itb.perms_faults                        0                       # Number of TLB faults due to permissions restrictions
system.cpu0.itb.read_accesses                       0                       # DTB read accesses
system.cpu0.itb.write_accesses                      0                       # DTB write accesses
system.cpu0.itb.inst_accesses                       0                       # ITB inst accesses
system.cpu0.itb.hits                                0                       # DTB hits
system.cpu0.itb.misses                              0                       # DTB misses
system.cpu0.itb.accesses                            0                       # DTB accesses
system.cpu0.workload.num_syscalls              254679                       # Number of system calls
system.cpu0.numCycles                        40023389                       # number of cpu cycles simulated
system.cpu0.numWorkItemsStarted                     0                       # number of work items this cpu started
system.cpu0.numWorkItemsCompleted                   0                       # number of work items this cpu completed
system.cpu0.fetch.icacheStallCycles              7370                       # Number of cycles fetch is stalled on an Icache miss
system.cpu0.fetch.Insts                     100007703                       # Number of instructions fetch has processed
system.cpu0.fetch.Branches                   20001288                       # Number of branches that fetch encountered
system.cpu0.fetch.predictedBranches          19999760                       # Number of branches that fetch has predicted taken
system.cpu0.fetch.Cycles                     40007613                       # Number of cycles fetch has run and was not squashing or blocked
system.cpu0.fetch.SquashCycles                   1238                       # Number of cycles fetch has spent squashing
system.cpu0.fetch.PendingTrapStallCycles          162                       # Number of stall cycles due to pending traps
system.cpu0.fetch.CacheLines                     1770                       # Number of cache lines fetched
system.cpu0.fetch.IcacheSquashes                  223                       # Number of outstanding Icache misses that were squashed
system.cpu0.fetch.rateDist::samples          40015764                       # Number of instructions fetched each cycle (Total)
system.cpu0.fetch.rateDist::mean             2.499312                       # Number of instructions fetched each cycle (Total)
system.cpu0.fetch.rateDist::stdev            0.501772                       # Number of instructions fetched each cycle (Total)
system.cpu0.fetch.rateDist::underflows              0      0.00%      0.00% # Number of instructions fetched each cycle (Total)
system.cpu0.fetch.rateDist::0                   11660      0.03%      0.03% # Number of instructions fetched each cycle (Total)
system.cpu0.fetch.rateDist::1                     553      0.00%      0.03% # Number of instructions fetched each cycle (Total)
system.cpu0.fetch.rateDist::2                19999339     49.98%     50.01% # Number of instructions fetched each cycle (Total)
system.cpu0.fetch.rateDist::3                20004212     49.99%    100.00% # Number of instructions fetched each cycle (Total)
system.cpu0.fetch.rateDist::overflows               0      0.00%    100.00% # Number of instructions fetched each cycle (Total)
system.cpu0.fetch.rateDist::min_value               0                       # Number of instructions fetched each cycle (Total)
system.cpu0.fetch.rateDist::max_value               3                       # Number of instructions fetched each cycle (Total)
system.cpu0.fetch.rateDist::total            40015764                       # Number of instructions fetched each cycle (Total)
system.cpu0.fetch.branchRate                 0.499740                       # Number of branch fetches per cycle
system.cpu0.fetch.rate                       2.498732                       # Number of inst fetches per cycle
system.cpu0.decode.IdleCycles                    7043                       # Number of cycles decode is idle
system.cpu0.decode.BlockedCycles                 5187                       # Number of cycles decode is blocked
system.cpu0.decode.RunCycles                 40002356                       # Number of cycles decode is running
system.cpu0.decode.UnblockCycles                  733                       # Number of cycles decode is unblocking
system.cpu0.decode.SquashCycles                   445                       # Number of cycles decode is squashing
system.cpu0.decode.BranchResolved                 317                       # Number of times decode resolved a branch
system.cpu0.decode.BranchMispred                  180                       # Number of times decode detected a branch misprediction
system.cpu0.decode.DecodedInsts             100009518                       # Number of instructions handled by decode
system.cpu0.decode.SquashedInsts                  422                       # Number of squashed instructions handled by decode
system.cpu0.rename.SquashCycles                   445                       # Number of cycles rename is squashing
system.cpu0.rename.IdleCycles                    7622                       # Number of cycles rename is idle
system.cpu0.rename.BlockCycles                    536                       # Number of cycles rename is blocking
system.cpu0.rename.serializeStallCycles          1946                       # count of cycles rename stalled for serializing inst
system.cpu0.rename.RunCycles                 40002403                       # Number of cycles rename is running
system.cpu0.rename.UnblockCycles                 2812                       # Number of cycles rename is unblocking
system.cpu0.rename.RenamedInsts             100008733                       # Number of instructions processed by rename
system.cpu0.rename.IQFullEvents                    20                       # Number of times rename has blocked due to IQ full
system.cpu0.rename.SQFullEvents                  2656                       # Number of times rename has blocked due to SQ full
system.cpu0.rename.RenamedOperands          100010199                       # Number of destination operands rename has renamed
system.cpu0.rename.RenameLookups            460044975                       # Number of register rename lookups that rename has made
system.cpu0.rename.int_rename_lookups       100013939                       # Number of integer rename lookups
system.cpu0.rename.fp_rename_lookups               16                       # Number of floating rename lookups
system.cpu0.rename.CommittedMaps            100004253                       # Number of HB maps that are committed
system.cpu0.rename.UndoneMaps                    5916                       # Number of HB maps that are undone due to squashing
system.cpu0.rename.serializingInsts                47                       # count of serializing insts renamed
system.cpu0.rename.tempSerializingInsts            46                       # count of temporary serializing insts renamed
system.cpu0.rename.skidInsts                     1204                       # count of insts added to the skid buffer
system.cpu0.memDep0.insertedLoads            39998953                       # Number of loads inserted to the mem dependence unit.
system.cpu0.memDep0.insertedStores           20002032                       # Number of stores inserted to the mem dependence unit.
system.cpu0.memDep0.conflictingLoads         19998159                       # Number of conflicting loads.
system.cpu0.memDep0.conflictingStores        19998133                       # Number of conflicting stores.
system.cpu0.iq.iqInstsAdded                 100007274                       # Number of instructions added to the IQ (excludes non-spec)
system.cpu0.iq.iqNonSpecInstsAdded                 67                       # Number of non-speculative instructions added to the IQ
system.cpu0.iq.iqInstsIssued                100005567                       # Number of instructions issued
system.cpu0.iq.iqSquashedInstsIssued              294                       # Number of squashed instructions issued
system.cpu0.iq.iqSquashedInstsExamined           4037                       # Number of squashed instructions iterated over during squash; mainly for profiling
system.cpu0.iq.iqSquashedOperandsExamined        10385                       # Number of squashed operands that are examined and possibly removed from graph
system.cpu0.iq.iqSquashedNonSpecRemoved             3                       # Number of squashed non-spec instructions that were removed
system.cpu0.iq.issued_per_cycle::samples     40015764                       # Number of insts issued each cycle
system.cpu0.iq.issued_per_cycle::mean        2.499154                       # Number of insts issued each cycle
system.cpu0.iq.issued_per_cycle::stdev       0.708407                       # Number of insts issued each cycle
system.cpu0.iq.issued_per_cycle::underflows            0      0.00%      0.00% # Number of insts issued each cycle
system.cpu0.iq.issued_per_cycle::0              12156      0.03%      0.03% # Number of insts issued each cycle
system.cpu0.iq.issued_per_cycle::1            5002347     12.50%     12.53% # Number of insts issued each cycle
system.cpu0.iq.issued_per_cycle::2           10000563     24.99%     37.52% # Number of insts issued each cycle
system.cpu0.iq.issued_per_cycle::3           25000698     62.48%    100.00% # Number of insts issued each cycle
system.cpu0.iq.issued_per_cycle::overflows            0      0.00%    100.00% # Number of insts issued each cycle
system.cpu0.iq.issued_per_cycle::min_value            0                       # Number of insts issued each cycle
system.cpu0.iq.issued_per_cycle::max_value            3                       # Number of insts issued each cycle
system.cpu0.iq.issued_per_cycle::total       40015764                       # Number of insts issued each cycle
system.cpu0.iq.fu_full::No_OpClass                  0                       # attempts to use FU when none available
system.cpu0.iq.fu_full::IntAlu                      0                       # attempts to use FU when none available
system.cpu0.iq.fu_full::IntMult                     0                       # attempts to use FU when none available
system.cpu0.iq.fu_full::IntDiv                      0                       # attempts to use FU when none available
system.cpu0.iq.fu_full::FloatAdd                    0                       # attempts to use FU when none available
system.cpu0.iq.fu_full::FloatCmp                    0                       # attempts to use FU when none available
system.cpu0.iq.fu_full::FloatCvt                    0                       # attempts to use FU when none available
system.cpu0.iq.fu_full::FloatMult                   0                       # attempts to use FU when none available
system.cpu0.iq.fu_full::FloatDiv                    0                       # attempts to use FU when none available
system.cpu0.iq.fu_full::FloatSqrt                   0                       # attempts to use FU when none available
system.cpu0.iq.fu_full::SimdAdd                     0                       # attempts to use FU when none available
system.cpu0.iq.fu_full::SimdAddAcc                  0                       # attempts to use FU when none available
system.cpu0.iq.fu_full::SimdAlu                     0                       # attempts to use FU when none available
system.cpu0.iq.fu_full::SimdCmp                     0                       # attempts to use FU when none available
system.cpu0.iq.fu_full::SimdCvt                     0                       # attempts to use FU when none available
system.cpu0.iq.fu_full::SimdMisc                    0                       # attempts to use FU when none available
system.cpu0.iq.fu_full::SimdMult                    0                       # attempts to use FU when none available
system.cpu0.iq.fu_full::SimdMultAcc                 0                       # attempts to use FU when none available
system.cpu0.iq.fu_full::SimdShift                   0                       # attempts to use FU when none available
system.cpu0.iq.fu_full::SimdShiftAcc                0                       # attempts to use FU when none available
system.cpu0.iq.fu_full::SimdSqrt                    0                       # attempts to use FU when none available
system.cpu0.iq.fu_full::SimdFloatAdd                0                       # attempts to use FU when none available
system.cpu0.iq.fu_full::SimdFloatAlu                0                       # attempts to use FU when none available
system.cpu0.iq.fu_full::SimdFloatCmp                0                       # attempts to use FU when none available
system.cpu0.iq.fu_full::SimdFloatCvt                0                       # attempts to use FU when none available
system.cpu0.iq.fu_full::SimdFloatDiv                0                       # attempts to use FU when none available
system.cpu0.iq.fu_full::SimdFloatMisc               0                       # attempts to use FU when none available
system.cpu0.iq.fu_full::SimdFloatMult               0                       # attempts to use FU when none available
system.cpu0.iq.fu_full::SimdFloatMultAcc            0                       # attempts to use FU when none available
system.cpu0.iq.fu_full::SimdFloatSqrt               0                       # attempts to use FU when none available
system.cpu0.iq.fu_full::MemRead                     0                       # attempts to use FU when none available
system.cpu0.iq.fu_full::MemWrite                    0                       # attempts to use FU when none available
system.cpu0.iq.fu_full::IprAccess                   0                       # attempts to use FU when none available
system.cpu0.iq.fu_full::InstPrefetch                0                       # attempts to use FU when none available
system.cpu0.iq.FU_type_0::No_OpClass                0      0.00%      0.00% # Type of FU issued
system.cpu0.iq.FU_type_0::IntAlu             40005120     40.00%     40.00% # Type of FU issued
system.cpu0.iq.FU_type_0::IntMult                   6      0.00%     40.00% # Type of FU issued
system.cpu0.iq.FU_type_0::IntDiv                    0      0.00%     40.00% # Type of FU issued
system.cpu0.iq.FU_type_0::FloatAdd                  0      0.00%     40.00% # Type of FU issued
system.cpu0.iq.FU_type_0::FloatCmp                  0      0.00%     40.00% # Type of FU issued
system.cpu0.iq.FU_type_0::FloatCvt                  0      0.00%     40.00% # Type of FU issued
system.cpu0.iq.FU_type_0::FloatMult                 0      0.00%     40.00% # Type of FU issued
system.cpu0.iq.FU_type_0::FloatDiv                  0      0.00%     40.00% # Type of FU issued
system.cpu0.iq.FU_type_0::FloatSqrt                 0      0.00%     40.00% # Type of FU issued
system.cpu0.iq.FU_type_0::SimdAdd                   0      0.00%     40.00% # Type of FU issued
system.cpu0.iq.FU_type_0::SimdAddAcc                0      0.00%     40.00% # Type of FU issued
system.cpu0.iq.FU_type_0::SimdAlu                   0      0.00%     40.00% # Type of FU issued
system.cpu0.iq.FU_type_0::SimdCmp                   0      0.00%     40.00% # Type of FU issued
system.cpu0.iq.FU_type_0::SimdCvt                   0      0.00%     40.00% # Type of FU issued
system.cpu0.iq.FU_type_0::SimdMisc                  0      0.00%     40.00% # Type of FU issued
system.cpu0.iq.FU_type_0::SimdMult                  0      0.00%     40.00% # Type of FU issued
system.cpu0.iq.FU_type_0::SimdMultAcc               0      0.00%     40.00% # Type of FU issued
system.cpu0.iq.FU_type_0::SimdShift                 0      0.00%     40.00% # Type of FU issued
system.cpu0.iq.FU_type_0::SimdShiftAcc              0      0.00%     40.00% # Type of FU issued
system.cpu0.iq.FU_type_0::SimdSqrt                  0      0.00%     40.00% # Type of FU issued
system.cpu0.iq.FU_type_0::SimdFloatAdd              0      0.00%     40.00% # Type of FU issued
system.cpu0.iq.FU_type_0::SimdFloatAlu              0      0.00%     40.00% # Type of FU issued
system.cpu0.iq.FU_type_0::SimdFloatCmp              0      0.00%     40.00% # Type of FU issued
system.cpu0.iq.FU_type_0::SimdFloatCvt              0      0.00%     40.00% # Type of FU issued
system.cpu0.iq.FU_type_0::SimdFloatDiv              0      0.00%     40.00% # Type of FU issued
system.cpu0.iq.FU_type_0::SimdFloatMisc             3      0.00%     40.00% # Type of FU issued
system.cpu0.iq.FU_type_0::SimdFloatMult             0      0.00%     40.00% # Type of FU issued
system.cpu0.iq.FU_type_0::SimdFloatMultAcc            0      0.00%     40.00% # Type of FU issued
system.cpu0.iq.FU_type_0::SimdFloatSqrt             0      0.00%     40.00% # Type of FU issued
system.cpu0.iq.FU_type_0::MemRead            39998611     40.00%     80.00% # Type of FU issued
system.cpu0.iq.FU_type_0::MemWrite           20001827     20.00%    100.00% # Type of FU issued
system.cpu0.iq.FU_type_0::IprAccess                 0      0.00%    100.00% # Type of FU issued
system.cpu0.iq.FU_type_0::InstPrefetch              0      0.00%    100.00% # Type of FU issued
system.cpu0.iq.FU_type_0::total             100005567                       # Type of FU issued
system.cpu0.iq.rate                          2.498678                       # Inst issue rate
system.cpu0.iq.fu_busy_cnt                          0                       # FU busy when requested
system.cpu0.iq.fu_busy_rate                         0                       # FU busy rate (busy events/executed inst)
system.cpu0.iq.int_inst_queue_reads         240027159                       # Number of integer instruction queue reads
system.cpu0.iq.int_inst_queue_writes        100011452                       # Number of integer instruction queue writes
system.cpu0.iq.int_inst_queue_wakeup_accesses    100004879                       # Number of integer instruction queue wakeup accesses
system.cpu0.iq.fp_inst_queue_reads                 32                       # Number of floating instruction queue reads
system.cpu0.iq.fp_inst_queue_writes                16                       # Number of floating instruction queue writes
system.cpu0.iq.fp_inst_queue_wakeup_accesses           16                       # Number of floating instruction queue wakeup accesses
system.cpu0.iq.int_alu_accesses             100005551                       # Number of integer alu accesses
system.cpu0.iq.fp_alu_accesses                     16                       # Number of floating point alu accesses
system.cpu0.iew.lsq.thread0.forwLoads        19998326                       # Number of loads that had data forwarded from stores
system.cpu0.iew.lsq.thread0.invAddrLoads            0                       # Number of loads ignored due to an invalid address
system.cpu0.iew.lsq.thread0.squashedLoads         1103                       # Number of loads squashed
system.cpu0.iew.lsq.thread0.ignoredResponses            3                       # Number of memory responses ignored because the instruction is squashed
system.cpu0.iew.lsq.thread0.memOrderViolation           90                       # Number of memory ordering violations
system.cpu0.iew.lsq.thread0.squashedStores          407                       # Number of stores squashed
system.cpu0.iew.lsq.thread0.invAddrSwpfs            0                       # Number of software prefetches ignored due to an invalid address
system.cpu0.iew.lsq.thread0.blockedLoads            0                       # Number of blocked loads due to partial load-store forwarding
system.cpu0.iew.lsq.thread0.rescheduledLoads            3                       # Number of loads that were rescheduled
system.cpu0.iew.lsq.thread0.cacheBlocked            0                       # Number of times an access to memory failed due to the cache being blocked
system.cpu0.iew.iewIdleCycles                       0                       # Number of cycles IEW is idle
system.cpu0.iew.iewSquashCycles                   445                       # Number of cycles IEW is squashing
system.cpu0.iew.iewBlockCycles                    399                       # Number of cycles IEW is blocking
system.cpu0.iew.iewUnblockCycles                  135                       # Number of cycles IEW is unblocking
system.cpu0.iew.iewDispatchedInsts          100007356                       # Number of instructions dispatched to IQ
system.cpu0.iew.iewDispSquashedInsts              237                       # Number of squashed instructions skipped by dispatch
system.cpu0.iew.iewDispLoadInsts             39998953                       # Number of dispatched load instructions
system.cpu0.iew.iewDispStoreInsts            20002032                       # Number of dispatched store instructions
system.cpu0.iew.iewDispNonSpecInsts                43                       # Number of dispatched non-speculative instructions
system.cpu0.iew.iewIQFullEvents                    11                       # Number of times the IQ has become full, causing a stall
system.cpu0.iew.iewLSQFullEvents                    0                       # Number of times the LSQ has become full, causing a stall
system.cpu0.iew.memOrderViolationEvents            90                       # Number of memory order violations
system.cpu0.iew.predictedTakenIncorrect            89                       # Number of branches that were predicted taken incorrectly
system.cpu0.iew.predictedNotTakenIncorrect          265                       # Number of branches that were predicted not taken incorrectly
system.cpu0.iew.branchMispredicts                 354                       # Number of branch mispredicts detected at execute
system.cpu0.iew.iewExecutedInsts            100005151                       # Number of executed instructions
system.cpu0.iew.iewExecLoadInsts             39998511                       # Number of load instructions executed
system.cpu0.iew.iewExecSquashedInsts              415                       # Number of squashed instructions skipped in execute
system.cpu0.iew.exec_swp                            0                       # number of swp insts executed
system.cpu0.iew.exec_nop                           15                       # number of nop insts executed
system.cpu0.iew.exec_refs                    60000222                       # number of memory reference insts executed
system.cpu0.iew.exec_branches                20000083                       # Number of branches executed
system.cpu0.iew.exec_forward_branches             750                       # Number of forward branches executed
system.cpu0.iew.exec_backward_branches       19999054                       # Number of backward branches executed
system.cpu0.iew.exec_taken_forward_branches          265                       # Number of forward branches executed that is taken
system.cpu0.iew.exec_nottaken_forward_branches          485                       # Number of forward branches executed that is not taken
system.cpu0.iew.exec_taken_backward_branches     19998853                       # Number of backward branches executed that is taken
system.cpu0.iew.exec_nottaken_backward_branches          201                       # Number of backward branches executed that is not taken
system.cpu0.iew.exec_stores                  20001711                       # Number of stores executed
system.cpu0.iew.exec_rate                    2.498668                       # Inst execution rate
system.cpu0.iew.wb_sent                     100004959                       # cumulative count of insts sent to commit
system.cpu0.iew.wb_count                    100004895                       # cumulative count of insts written-back
system.cpu0.iew.wb_producers                 60000876                       # num instructions producing a value
system.cpu0.iew.wb_consumers                 60010647                       # num instructions consuming a value
system.cpu0.iew.wb_penalized                        0                       # number of instrctions required to write to 'other' IQ
system.cpu0.iew.wb_rate                      2.498661                       # insts written-back per cycle
system.cpu0.iew.wb_fanout                    0.999837                       # average fanout of values written-back
system.cpu0.iew.wb_penalized_rate                   0                       # fraction of instructions written-back that wrote to 'other' IQ
system.cpu0.commit.commitSquashedInsts           4052                       # The number of squashed insts skipped by commit
system.cpu0.commit.commitNonSpecStalls             64                       # The number of times commit has been forced to stall to communicate backwards
system.cpu0.commit.branchMispredicts              339                       # The number of times a branch was mispredicted
system.cpu0.commit.committed_per_cycle::samples     40015023                       # Number of insts commited each cycle
system.cpu0.commit.committed_per_cycle::mean     2.499143                       # Number of insts commited each cycle
system.cpu0.commit.committed_per_cycle::stdev     1.581505                       # Number of insts commited each cycle
system.cpu0.commit.committed_per_cycle::underflows            0      0.00%      0.00% # Number of insts commited each cycle
system.cpu0.commit.committed_per_cycle::0        12965      0.03%      0.03% # Number of insts commited each cycle
system.cpu0.commit.committed_per_cycle::1     20000575     49.98%     50.02% # Number of insts commited each cycle
system.cpu0.commit.committed_per_cycle::2         1132      0.00%     50.02% # Number of insts commited each cycle
system.cpu0.commit.committed_per_cycle::3      5001342     12.50%     62.52% # Number of insts commited each cycle
system.cpu0.commit.committed_per_cycle::4      9999144     24.99%     87.51% # Number of insts commited each cycle
system.cpu0.commit.committed_per_cycle::5      4999610     12.49%    100.00% # Number of insts commited each cycle
system.cpu0.commit.committed_per_cycle::6           69      0.00%    100.00% # Number of insts commited each cycle
system.cpu0.commit.committed_per_cycle::7          110      0.00%    100.00% # Number of insts commited each cycle
system.cpu0.commit.committed_per_cycle::8           76      0.00%    100.00% # Number of insts commited each cycle
system.cpu0.commit.committed_per_cycle::overflows            0      0.00%    100.00% # Number of insts commited each cycle
system.cpu0.commit.committed_per_cycle::min_value            0                       # Number of insts commited each cycle
system.cpu0.commit.committed_per_cycle::max_value            8                       # Number of insts commited each cycle
system.cpu0.commit.committed_per_cycle::total     40015023                       # Number of insts commited each cycle
system.cpu0.commit.committedInsts           100000001                       # Number of instructions committed
system.cpu0.commit.committedOps             100003283                       # Number of ops (including micro ops) committed
system.cpu0.commit.swp_count                        0                       # Number of s/w prefetches committed
system.cpu0.commit.refs                      59999463                       # Number of memory references committed
system.cpu0.commit.loads                     39997842                       # Number of loads committed
system.cpu0.commit.membars                         24                       # Number of memory barriers committed
system.cpu0.commit.branches                  19999780                       # Number of branches committed
system.cpu0.commit.fp_insts                        16                       # Number of committed floating point instructions.
system.cpu0.commit.int_insts                 80003858                       # Number of committed integer instructions.
system.cpu0.commit.function_calls                 138                       # Number of function calls committed.
system.cpu0.commit.op_class_0::No_OpClass            0      0.00%      0.00% # Class of committed instruction
system.cpu0.commit.op_class_0::IntAlu        40003811     40.00%     40.00% # Class of committed instruction
system.cpu0.commit.op_class_0::IntMult              6      0.00%     40.00% # Class of committed instruction
system.cpu0.commit.op_class_0::IntDiv               0      0.00%     40.00% # Class of committed instruction
system.cpu0.commit.op_class_0::FloatAdd             0      0.00%     40.00% # Class of committed instruction
system.cpu0.commit.op_class_0::FloatCmp             0      0.00%     40.00% # Class of committed instruction
system.cpu0.commit.op_class_0::FloatCvt             0      0.00%     40.00% # Class of committed instruction
system.cpu0.commit.op_class_0::FloatMult            0      0.00%     40.00% # Class of committed instruction
system.cpu0.commit.op_class_0::FloatDiv             0      0.00%     40.00% # Class of committed instruction
system.cpu0.commit.op_class_0::FloatSqrt            0      0.00%     40.00% # Class of committed instruction
system.cpu0.commit.op_class_0::SimdAdd              0      0.00%     40.00% # Class of committed instruction
system.cpu0.commit.op_class_0::SimdAddAcc            0      0.00%     40.00% # Class of committed instruction
system.cpu0.commit.op_class_0::SimdAlu              0      0.00%     40.00% # Class of committed instruction
system.cpu0.commit.op_class_0::SimdCmp              0      0.00%     40.00% # Class of committed instruction
system.cpu0.commit.op_class_0::SimdCvt              0      0.00%     40.00% # Class of committed instruction
system.cpu0.commit.op_class_0::SimdMisc             0      0.00%     40.00% # Class of committed instruction
system.cpu0.commit.op_class_0::SimdMult             0      0.00%     40.00% # Class of committed instruction
system.cpu0.commit.op_class_0::SimdMultAcc            0      0.00%     40.00% # Class of committed instruction
system.cpu0.commit.op_class_0::SimdShift            0      0.00%     40.00% # Class of committed instruction
system.cpu0.commit.op_class_0::SimdShiftAcc            0      0.00%     40.00% # Class of committed instruction
system.cpu0.commit.op_class_0::SimdSqrt             0      0.00%     40.00% # Class of committed instruction
system.cpu0.commit.op_class_0::SimdFloatAdd            0      0.00%     40.00% # Class of committed instruction
system.cpu0.commit.op_class_0::SimdFloatAlu            0      0.00%     40.00% # Class of committed instruction
system.cpu0.commit.op_class_0::SimdFloatCmp            0      0.00%     40.00% # Class of committed instruction
system.cpu0.commit.op_class_0::SimdFloatCvt            0      0.00%     40.00% # Class of committed instruction
system.cpu0.commit.op_class_0::SimdFloatDiv            0      0.00%     40.00% # Class of committed instruction
system.cpu0.commit.op_class_0::SimdFloatMisc            3      0.00%     40.00% # Class of committed instruction
system.cpu0.commit.op_class_0::SimdFloatMult            0      0.00%     40.00% # Class of committed instruction
system.cpu0.commit.op_class_0::SimdFloatMultAcc            0      0.00%     40.00% # Class of committed instruction
system.cpu0.commit.op_class_0::SimdFloatSqrt            0      0.00%     40.00% # Class of committed instruction
system.cpu0.commit.op_class_0::MemRead       39997842     40.00%     80.00% # Class of committed instruction
system.cpu0.commit.op_class_0::MemWrite      20001621     20.00%    100.00% # Class of committed instruction
system.cpu0.commit.op_class_0::IprAccess            0      0.00%    100.00% # Class of committed instruction
system.cpu0.commit.op_class_0::InstPrefetch            0      0.00%    100.00% # Class of committed instruction
system.cpu0.commit.op_class_0::total        100003283                       # Class of committed instruction
system.cpu0.commit.bw_lim_events                   76                       # number cycles where commit BW limit reached
system.cpu0.rob.rob_reads                   140022073                       # The number of ROB reads
system.cpu0.rob.rob_writes                  200015436                       # The number of ROB writes
system.cpu0.timesIdled                            225                       # Number of times that the entire CPU went into an idle state and unscheduled itself
system.cpu0.idleCycles                           7625                       # Total number of cycles that the CPU has spent unscheduled due to idling
system.cpu0.committedInsts                  100000001                       # Number of Instructions Simulated
system.cpu0.committedOps                    100003283                       # Number of Ops (including micro ops) Simulated
system.cpu0.cpi                              0.400234                       # CPI: Cycles Per Instruction
system.cpu0.cpi_total                        0.400234                       # CPI: Total CPI of All Threads
system.cpu0.ipc                              2.498539                       # IPC: Instructions Per Cycle
system.cpu0.ipc_total                        2.498539                       # IPC: Total IPC of All Threads
system.cpu0.int_regfile_reads               100007769                       # number of integer regfile reads
system.cpu0.int_regfile_writes               40004184                       # number of integer regfile writes
system.cpu0.fp_regfile_reads                      656                       # number of floating regfile reads
system.cpu0.cc_regfile_reads                420010209                       # number of cc regfile reads
system.cpu0.cc_regfile_writes                60001779                       # number of cc regfile writes
system.cpu0.misc_regfile_reads               61798447                       # number of misc regfile reads
system.cpu0.misc_regfile_writes                    48                       # number of misc regfile writes
system.cpu0.dcache.tags.replacements               28                       # number of replacements
system.cpu0.dcache.tags.tagsinuse          127.067486                       # Cycle average of tags in use
system.cpu0.dcache.tags.total_refs           39998755                       # Total number of references to valid blocks.
system.cpu0.dcache.tags.sampled_refs              153                       # Sample count of references to valid blocks.
system.cpu0.dcache.tags.avg_refs         261429.771242                       # Average number of references to valid blocks.
system.cpu0.dcache.tags.warmup_cycle                0                       # Cycle when the warmup percentage was hit.
system.cpu0.dcache.tags.occ_blocks::cpu0.data   127.067486                       # Average occupied blocks per requestor
system.cpu0.dcache.tags.occ_percent::cpu0.data     0.248179                       # Average percentage of cache occupancy
system.cpu0.dcache.tags.occ_percent::total     0.248179                       # Average percentage of cache occupancy
system.cpu0.dcache.tags.occ_task_id_blocks::1024          125                       # Occupied blocks per task id
system.cpu0.dcache.tags.age_task_id_blocks_1024::4          125                       # Occupied blocks per task id
system.cpu0.dcache.tags.occ_task_id_percent::1024     0.244141                       # Percentage of cache occupancy per task id
system.cpu0.dcache.tags.tag_accesses         80003595                       # Number of tag accesses
system.cpu0.dcache.tags.data_accesses        80003595                       # Number of data accesses
system.cpu0.dcache.ReadReq_hits::cpu0.data     19999882                       # number of ReadReq hits
system.cpu0.dcache.ReadReq_hits::total       19999882                       # number of ReadReq hits
system.cpu0.dcache.WriteReq_hits::cpu0.data     19999166                       # number of WriteReq hits
system.cpu0.dcache.WriteReq_hits::total      19999166                       # number of WriteReq hits
system.cpu0.dcache.LoadLockedReq_hits::cpu0.data           20                       # number of LoadLockedReq hits
system.cpu0.dcache.LoadLockedReq_hits::total           20                       # number of LoadLockedReq hits
system.cpu0.dcache.StoreCondReq_hits::cpu0.data           23                       # number of StoreCondReq hits
system.cpu0.dcache.StoreCondReq_hits::total           23                       # number of StoreCondReq hits
system.cpu0.dcache.demand_hits::cpu0.data     39999048                       # number of demand (read+write) hits
system.cpu0.dcache.demand_hits::total        39999048                       # number of demand (read+write) hits
system.cpu0.dcache.overall_hits::cpu0.data     39999048                       # number of overall hits
system.cpu0.dcache.overall_hits::total       39999048                       # number of overall hits
system.cpu0.dcache.ReadReq_misses::cpu0.data          168                       # number of ReadReq misses
system.cpu0.dcache.ReadReq_misses::total          168                       # number of ReadReq misses
system.cpu0.dcache.WriteReq_misses::cpu0.data         2388                       # number of WriteReq misses
system.cpu0.dcache.WriteReq_misses::total         2388                       # number of WriteReq misses
system.cpu0.dcache.LoadLockedReq_misses::cpu0.data            3                       # number of LoadLockedReq misses
system.cpu0.dcache.LoadLockedReq_misses::total            3                       # number of LoadLockedReq misses
system.cpu0.dcache.demand_misses::cpu0.data         2556                       # number of demand (read+write) misses
system.cpu0.dcache.demand_misses::total          2556                       # number of demand (read+write) misses
system.cpu0.dcache.overall_misses::cpu0.data         2556                       # number of overall misses
system.cpu0.dcache.overall_misses::total         2556                       # number of overall misses
system.cpu0.dcache.ReadReq_miss_latency::cpu0.data      8039990                       # number of ReadReq miss cycles
system.cpu0.dcache.ReadReq_miss_latency::total      8039990                       # number of ReadReq miss cycles
system.cpu0.dcache.WriteReq_miss_latency::cpu0.data    119907000                       # number of WriteReq miss cycles
system.cpu0.dcache.WriteReq_miss_latency::total    119907000                       # number of WriteReq miss cycles
system.cpu0.dcache.LoadLockedReq_miss_latency::cpu0.data       133500                       # number of LoadLockedReq miss cycles
system.cpu0.dcache.LoadLockedReq_miss_latency::total       133500                       # number of LoadLockedReq miss cycles
system.cpu0.dcache.demand_miss_latency::cpu0.data    127946990                       # number of demand (read+write) miss cycles
system.cpu0.dcache.demand_miss_latency::total    127946990                       # number of demand (read+write) miss cycles
system.cpu0.dcache.overall_miss_latency::cpu0.data    127946990                       # number of overall miss cycles
system.cpu0.dcache.overall_miss_latency::total    127946990                       # number of overall miss cycles
system.cpu0.dcache.ReadReq_accesses::cpu0.data     20000050                       # number of ReadReq accesses(hits+misses)
system.cpu0.dcache.ReadReq_accesses::total     20000050                       # number of ReadReq accesses(hits+misses)
system.cpu0.dcache.WriteReq_accesses::cpu0.data     20001554                       # number of WriteReq accesses(hits+misses)
system.cpu0.dcache.WriteReq_accesses::total     20001554                       # number of WriteReq accesses(hits+misses)
system.cpu0.dcache.LoadLockedReq_accesses::cpu0.data           23                       # number of LoadLockedReq accesses(hits+misses)
system.cpu0.dcache.LoadLockedReq_accesses::total           23                       # number of LoadLockedReq accesses(hits+misses)
system.cpu0.dcache.StoreCondReq_accesses::cpu0.data           23                       # number of StoreCondReq accesses(hits+misses)
system.cpu0.dcache.StoreCondReq_accesses::total           23                       # number of StoreCondReq accesses(hits+misses)
system.cpu0.dcache.demand_accesses::cpu0.data     40001604                       # number of demand (read+write) accesses
system.cpu0.dcache.demand_accesses::total     40001604                       # number of demand (read+write) accesses
system.cpu0.dcache.overall_accesses::cpu0.data     40001604                       # number of overall (read+write) accesses
system.cpu0.dcache.overall_accesses::total     40001604                       # number of overall (read+write) accesses
system.cpu0.dcache.ReadReq_miss_rate::cpu0.data     0.000008                       # miss rate for ReadReq accesses
system.cpu0.dcache.ReadReq_miss_rate::total     0.000008                       # miss rate for ReadReq accesses
system.cpu0.dcache.WriteReq_miss_rate::cpu0.data     0.000119                       # miss rate for WriteReq accesses
system.cpu0.dcache.WriteReq_miss_rate::total     0.000119                       # miss rate for WriteReq accesses
system.cpu0.dcache.LoadLockedReq_miss_rate::cpu0.data     0.130435                       # miss rate for LoadLockedReq accesses
system.cpu0.dcache.LoadLockedReq_miss_rate::total     0.130435                       # miss rate for LoadLockedReq accesses
system.cpu0.dcache.demand_miss_rate::cpu0.data     0.000064                       # miss rate for demand accesses
system.cpu0.dcache.demand_miss_rate::total     0.000064                       # miss rate for demand accesses
system.cpu0.dcache.overall_miss_rate::cpu0.data     0.000064                       # miss rate for overall accesses
system.cpu0.dcache.overall_miss_rate::total     0.000064                       # miss rate for overall accesses
system.cpu0.dcache.ReadReq_avg_miss_latency::cpu0.data 47857.083333                       # average ReadReq miss latency
system.cpu0.dcache.ReadReq_avg_miss_latency::total 47857.083333                       # average ReadReq miss latency
system.cpu0.dcache.WriteReq_avg_miss_latency::cpu0.data 50212.311558                       # average WriteReq miss latency
system.cpu0.dcache.WriteReq_avg_miss_latency::total 50212.311558                       # average WriteReq miss latency
system.cpu0.dcache.LoadLockedReq_avg_miss_latency::cpu0.data        44500                       # average LoadLockedReq miss latency
system.cpu0.dcache.LoadLockedReq_avg_miss_latency::total        44500                       # average LoadLockedReq miss latency
system.cpu0.dcache.demand_avg_miss_latency::cpu0.data 50057.507825                       # average overall miss latency
system.cpu0.dcache.demand_avg_miss_latency::total 50057.507825                       # average overall miss latency
system.cpu0.dcache.overall_avg_miss_latency::cpu0.data 50057.507825                       # average overall miss latency
system.cpu0.dcache.overall_avg_miss_latency::total 50057.507825                       # average overall miss latency
system.cpu0.dcache.blocked_cycles::no_mshrs            0                       # number of cycles access was blocked
system.cpu0.dcache.blocked_cycles::no_targets            0                       # number of cycles access was blocked
system.cpu0.dcache.blocked::no_mshrs                0                       # number of cycles access was blocked
system.cpu0.dcache.blocked::no_targets              0                       # number of cycles access was blocked
system.cpu0.dcache.avg_blocked_cycles::no_mshrs          nan                       # average number of cycles each access was blocked
system.cpu0.dcache.avg_blocked_cycles::no_targets          nan                       # average number of cycles each access was blocked
system.cpu0.dcache.fast_writes                      0                       # number of fast writes performed
system.cpu0.dcache.cache_copies                     0                       # number of cache copies performed
system.cpu0.dcache.writebacks::writebacks           11                       # number of writebacks
system.cpu0.dcache.writebacks::total               11                       # number of writebacks
system.cpu0.dcache.ReadReq_mshr_hits::cpu0.data           57                       # number of ReadReq MSHR hits
system.cpu0.dcache.ReadReq_mshr_hits::total           57                       # number of ReadReq MSHR hits
system.cpu0.dcache.WriteReq_mshr_hits::cpu0.data         2203                       # number of WriteReq MSHR hits
system.cpu0.dcache.WriteReq_mshr_hits::total         2203                       # number of WriteReq MSHR hits
system.cpu0.dcache.LoadLockedReq_mshr_hits::cpu0.data            3                       # number of LoadLockedReq MSHR hits
system.cpu0.dcache.LoadLockedReq_mshr_hits::total            3                       # number of LoadLockedReq MSHR hits
system.cpu0.dcache.demand_mshr_hits::cpu0.data         2260                       # number of demand (read+write) MSHR hits
system.cpu0.dcache.demand_mshr_hits::total         2260                       # number of demand (read+write) MSHR hits
system.cpu0.dcache.overall_mshr_hits::cpu0.data         2260                       # number of overall MSHR hits
system.cpu0.dcache.overall_mshr_hits::total         2260                       # number of overall MSHR hits
system.cpu0.dcache.ReadReq_mshr_misses::cpu0.data          111                       # number of ReadReq MSHR misses
system.cpu0.dcache.ReadReq_mshr_misses::total          111                       # number of ReadReq MSHR misses
system.cpu0.dcache.WriteReq_mshr_misses::cpu0.data          185                       # number of WriteReq MSHR misses
system.cpu0.dcache.WriteReq_mshr_misses::total          185                       # number of WriteReq MSHR misses
system.cpu0.dcache.demand_mshr_misses::cpu0.data          296                       # number of demand (read+write) MSHR misses
system.cpu0.dcache.demand_mshr_misses::total          296                       # number of demand (read+write) MSHR misses
system.cpu0.dcache.overall_mshr_misses::cpu0.data          296                       # number of overall MSHR misses
system.cpu0.dcache.overall_mshr_misses::total          296                       # number of overall MSHR misses
system.cpu0.dcache.ReadReq_mshr_miss_latency::cpu0.data      5258006                       # number of ReadReq MSHR miss cycles
system.cpu0.dcache.ReadReq_mshr_miss_latency::total      5258006                       # number of ReadReq MSHR miss cycles
system.cpu0.dcache.WriteReq_mshr_miss_latency::cpu0.data     10223000                       # number of WriteReq MSHR miss cycles
system.cpu0.dcache.WriteReq_mshr_miss_latency::total     10223000                       # number of WriteReq MSHR miss cycles
system.cpu0.dcache.demand_mshr_miss_latency::cpu0.data     15481006                       # number of demand (read+write) MSHR miss cycles
system.cpu0.dcache.demand_mshr_miss_latency::total     15481006                       # number of demand (read+write) MSHR miss cycles
system.cpu0.dcache.overall_mshr_miss_latency::cpu0.data     15481006                       # number of overall MSHR miss cycles
system.cpu0.dcache.overall_mshr_miss_latency::total     15481006                       # number of overall MSHR miss cycles
system.cpu0.dcache.ReadReq_mshr_miss_rate::cpu0.data     0.000006                       # mshr miss rate for ReadReq accesses
system.cpu0.dcache.ReadReq_mshr_miss_rate::total     0.000006                       # mshr miss rate for ReadReq accesses
system.cpu0.dcache.WriteReq_mshr_miss_rate::cpu0.data     0.000009                       # mshr miss rate for WriteReq accesses
system.cpu0.dcache.WriteReq_mshr_miss_rate::total     0.000009                       # mshr miss rate for WriteReq accesses
system.cpu0.dcache.demand_mshr_miss_rate::cpu0.data     0.000007                       # mshr miss rate for demand accesses
system.cpu0.dcache.demand_mshr_miss_rate::total     0.000007                       # mshr miss rate for demand accesses
system.cpu0.dcache.overall_mshr_miss_rate::cpu0.data     0.000007                       # mshr miss rate for overall accesses
system.cpu0.dcache.overall_mshr_miss_rate::total     0.000007                       # mshr miss rate for overall accesses
system.cpu0.dcache.ReadReq_avg_mshr_miss_latency::cpu0.data 47369.423423                       # average ReadReq mshr miss latency
system.cpu0.dcache.ReadReq_avg_mshr_miss_latency::total 47369.423423                       # average ReadReq mshr miss latency
system.cpu0.dcache.WriteReq_avg_mshr_miss_latency::cpu0.data 55259.459459                       # average WriteReq mshr miss latency
system.cpu0.dcache.WriteReq_avg_mshr_miss_latency::total 55259.459459                       # average WriteReq mshr miss latency
system.cpu0.dcache.demand_avg_mshr_miss_latency::cpu0.data 52300.695946                       # average overall mshr miss latency
system.cpu0.dcache.demand_avg_mshr_miss_latency::total 52300.695946                       # average overall mshr miss latency
system.cpu0.dcache.overall_avg_mshr_miss_latency::cpu0.data 52300.695946                       # average overall mshr miss latency
system.cpu0.dcache.overall_avg_mshr_miss_latency::total 52300.695946                       # average overall mshr miss latency
system.cpu0.dcache.no_allocate_misses               0                       # Number of misses that were no-allocate
system.cpu0.icache.tags.replacements               51                       # number of replacements
system.cpu0.icache.tags.tagsinuse          287.920634                       # Cycle average of tags in use
system.cpu0.icache.tags.total_refs               1379                       # Total number of references to valid blocks.
system.cpu0.icache.tags.sampled_refs              339                       # Sample count of references to valid blocks.
system.cpu0.icache.tags.avg_refs             4.067847                       # Average number of references to valid blocks.
system.cpu0.icache.tags.warmup_cycle                0                       # Cycle when the warmup percentage was hit.
system.cpu0.icache.tags.occ_blocks::cpu0.inst   287.920634                       # Average occupied blocks per requestor
system.cpu0.icache.tags.occ_percent::cpu0.inst     0.562345                       # Average percentage of cache occupancy
system.cpu0.icache.tags.occ_percent::total     0.562345                       # Average percentage of cache occupancy
system.cpu0.icache.tags.occ_task_id_blocks::1024          288                       # Occupied blocks per task id
system.cpu0.icache.tags.age_task_id_blocks_1024::4          288                       # Occupied blocks per task id
system.cpu0.icache.tags.occ_task_id_percent::1024     0.562500                       # Percentage of cache occupancy per task id
system.cpu0.icache.tags.tag_accesses             3879                       # Number of tag accesses
system.cpu0.icache.tags.data_accesses            3879                       # Number of data accesses
system.cpu0.icache.ReadReq_hits::cpu0.inst         1379                       # number of ReadReq hits
system.cpu0.icache.ReadReq_hits::total           1379                       # number of ReadReq hits
system.cpu0.icache.demand_hits::cpu0.inst         1379                       # number of demand (read+write) hits
system.cpu0.icache.demand_hits::total            1379                       # number of demand (read+write) hits
system.cpu0.icache.overall_hits::cpu0.inst         1379                       # number of overall hits
system.cpu0.icache.overall_hits::total           1379                       # number of overall hits
system.cpu0.icache.ReadReq_misses::cpu0.inst          391                       # number of ReadReq misses
system.cpu0.icache.ReadReq_misses::total          391                       # number of ReadReq misses
system.cpu0.icache.demand_misses::cpu0.inst          391                       # number of demand (read+write) misses
system.cpu0.icache.demand_misses::total           391                       # number of demand (read+write) misses
system.cpu0.icache.overall_misses::cpu0.inst          391                       # number of overall misses
system.cpu0.icache.overall_misses::total          391                       # number of overall misses
system.cpu0.icache.ReadReq_miss_latency::cpu0.inst     20956498                       # number of ReadReq miss cycles
system.cpu0.icache.ReadReq_miss_latency::total     20956498                       # number of ReadReq miss cycles
system.cpu0.icache.demand_miss_latency::cpu0.inst     20956498                       # number of demand (read+write) miss cycles
system.cpu0.icache.demand_miss_latency::total     20956498                       # number of demand (read+write) miss cycles
system.cpu0.icache.overall_miss_latency::cpu0.inst     20956498                       # number of overall miss cycles
system.cpu0.icache.overall_miss_latency::total     20956498                       # number of overall miss cycles
system.cpu0.icache.ReadReq_accesses::cpu0.inst         1770                       # number of ReadReq accesses(hits+misses)
system.cpu0.icache.ReadReq_accesses::total         1770                       # number of ReadReq accesses(hits+misses)
system.cpu0.icache.demand_accesses::cpu0.inst         1770                       # number of demand (read+write) accesses
system.cpu0.icache.demand_accesses::total         1770                       # number of demand (read+write) accesses
system.cpu0.icache.overall_accesses::cpu0.inst         1770                       # number of overall (read+write) accesses
system.cpu0.icache.overall_accesses::total         1770                       # number of overall (read+write) accesses
system.cpu0.icache.ReadReq_miss_rate::cpu0.inst     0.220904                       # miss rate for ReadReq accesses
system.cpu0.icache.ReadReq_miss_rate::total     0.220904                       # miss rate for ReadReq accesses
system.cpu0.icache.demand_miss_rate::cpu0.inst     0.220904                       # miss rate for demand accesses
system.cpu0.icache.demand_miss_rate::total     0.220904                       # miss rate for demand accesses
system.cpu0.icache.overall_miss_rate::cpu0.inst     0.220904                       # miss rate for overall accesses
system.cpu0.icache.overall_miss_rate::total     0.220904                       # miss rate for overall accesses
system.cpu0.icache.ReadReq_avg_miss_latency::cpu0.inst 53597.181586                       # average ReadReq miss latency
system.cpu0.icache.ReadReq_avg_miss_latency::total 53597.181586                       # average ReadReq miss latency
system.cpu0.icache.demand_avg_miss_latency::cpu0.inst 53597.181586                       # average overall miss latency
system.cpu0.icache.demand_avg_miss_latency::total 53597.181586                       # average overall miss latency
system.cpu0.icache.overall_avg_miss_latency::cpu0.inst 53597.181586                       # average overall miss latency
system.cpu0.icache.overall_avg_miss_latency::total 53597.181586                       # average overall miss latency
system.cpu0.icache.blocked_cycles::no_mshrs           11                       # number of cycles access was blocked
system.cpu0.icache.blocked_cycles::no_targets            0                       # number of cycles access was blocked
system.cpu0.icache.blocked::no_mshrs                1                       # number of cycles access was blocked
system.cpu0.icache.blocked::no_targets              0                       # number of cycles access was blocked
system.cpu0.icache.avg_blocked_cycles::no_mshrs           11                       # average number of cycles each access was blocked
system.cpu0.icache.avg_blocked_cycles::no_targets          nan                       # average number of cycles each access was blocked
system.cpu0.icache.fast_writes                      0                       # number of fast writes performed
system.cpu0.icache.cache_copies                     0                       # number of cache copies performed
[...]
system.l2.demand_mshr_miss_rate::cpu4.data     0.573074                       # mshr miss rate for demand accesses
system.l2.demand_mshr_miss_rate::total       0.560525                       # mshr miss rate for demand accesses
system.l2.overall_mshr_miss_rate::cpu0.inst     0.949853                       # mshr miss rate for overall accesses
system.l2.overall_mshr_miss_rate::cpu0.data     0.905085                       # mshr miss rate for overall accesses
system.l2.overall_mshr_miss_rate::cpu1.inst     0.051852                       # mshr miss rate for overall accesses
system.l2.overall_mshr_miss_rate::cpu1.data     0.576194                       # mshr miss rate for overall accesses
system.l2.overall_mshr_miss_rate::cpu2.inst     0.014968                       # mshr miss rate for overall accesses
system.l2.overall_mshr_miss_rate::cpu2.data     0.588657                       # mshr miss rate for overall accesses
system.l2.overall_mshr_miss_rate::cpu3.inst     0.027246                       # mshr miss rate for overall accesses
system.l2.overall_mshr_miss_rate::cpu3.data     0.582850                       # mshr miss rate for overall accesses
system.l2.overall_mshr_miss_rate::cpu4.inst     0.041109                       # mshr miss rate for overall accesses
system.l2.overall_mshr_miss_rate::cpu4.data     0.573074                       # mshr miss rate for overall accesses
system.l2.overall_mshr_miss_rate::total      0.560525                       # mshr miss rate for overall accesses
system.l2.ReadReq_avg_mshr_miss_latency::cpu0.inst 41018.633540                       # average ReadReq mshr miss latency
system.l2.ReadReq_avg_mshr_miss_latency::cpu0.data 42198.795181                       # average ReadReq mshr miss latency
system.l2.ReadReq_avg_mshr_miss_latency::cpu1.inst 40936.507937                       # average ReadReq mshr miss latency
system.l2.ReadReq_avg_mshr_miss_latency::cpu1.data 40516.342861                       # average ReadReq mshr miss latency
system.l2.ReadReq_avg_mshr_miss_latency::cpu2.inst 40756.756757                       # average ReadReq mshr miss latency
system.l2.ReadReq_avg_mshr_miss_latency::cpu2.data 40519.825169                       # average ReadReq mshr miss latency
system.l2.ReadReq_avg_mshr_miss_latency::cpu3.inst 40742.187500                       # average ReadReq mshr miss latency
system.l2.ReadReq_avg_mshr_miss_latency::cpu3.data 40516.902274                       # average ReadReq mshr miss latency
system.l2.ReadReq_avg_mshr_miss_latency::cpu4.inst 40775.280899                       # average ReadReq mshr miss latency
system.l2.ReadReq_avg_mshr_miss_latency::cpu4.data 40518.997118                       # average ReadReq mshr miss latency
system.l2.ReadReq_avg_mshr_miss_latency::total 40520.899363                       # average ReadReq mshr miss latency
system.l2.UpgradeReq_avg_mshr_miss_latency::cpu0.data        44000                       # average UpgradeReq mshr miss latency
system.l2.UpgradeReq_avg_mshr_miss_latency::cpu1.data 40703.669819                       # average UpgradeReq mshr miss latency
system.l2.UpgradeReq_avg_mshr_miss_latency::cpu2.data 40707.809180                       # average UpgradeReq mshr miss latency
system.l2.UpgradeReq_avg_mshr_miss_latency::cpu3.data 40702.384729                       # average UpgradeReq mshr miss latency
system.l2.UpgradeReq_avg_mshr_miss_latency::cpu4.data 40732.312575                       # average UpgradeReq mshr miss latency
system.l2.UpgradeReq_avg_mshr_miss_latency::total 40711.828183                       # average UpgradeReq mshr miss latency
system.l2.SCUpgradeReq_avg_mshr_miss_latency::cpu1.data 40549.510742                       # average SCUpgradeReq mshr miss latency
system.l2.SCUpgradeReq_avg_mshr_miss_latency::cpu2.data 40548.670744                       # average SCUpgradeReq mshr miss latency
system.l2.SCUpgradeReq_avg_mshr_miss_latency::cpu3.data 40550.133868                       # average SCUpgradeReq mshr miss latency
system.l2.SCUpgradeReq_avg_mshr_miss_latency::cpu4.data 40541.100965                       # average SCUpgradeReq mshr miss latency
system.l2.SCUpgradeReq_avg_mshr_miss_latency::total 40547.382270                       # average SCUpgradeReq mshr miss latency
system.l2.ReadExReq_avg_mshr_miss_latency::cpu0.data 40779.891304                       # average ReadExReq mshr miss latency
system.l2.ReadExReq_avg_mshr_miss_latency::cpu1.data 40623.239437                       # average ReadExReq mshr miss latency
system.l2.ReadExReq_avg_mshr_miss_latency::cpu2.data 40676.348548                       # average ReadExReq mshr miss latency
system.l2.ReadExReq_avg_mshr_miss_latency::cpu3.data 40645.631068                       # average ReadExReq mshr miss latency
system.l2.ReadExReq_avg_mshr_miss_latency::cpu4.data 40620.498615                       # average ReadExReq mshr miss latency
system.l2.ReadExReq_avg_mshr_miss_latency::total 40649.836601                       # average ReadExReq mshr miss latency
system.l2.demand_avg_mshr_miss_latency::cpu0.inst 41018.633540                       # average overall mshr miss latency
system.l2.demand_avg_mshr_miss_latency::cpu0.data 41220.973783                       # average overall mshr miss latency
system.l2.demand_avg_mshr_miss_latency::cpu1.inst 40936.507937                       # average overall mshr miss latency
system.l2.demand_avg_mshr_miss_latency::cpu1.data 40518.537799                       # average overall mshr miss latency
system.l2.demand_avg_mshr_miss_latency::cpu2.inst 40756.756757                       # average overall mshr miss latency
system.l2.demand_avg_mshr_miss_latency::cpu2.data 40523.130166                       # average overall mshr miss latency
system.l2.demand_avg_mshr_miss_latency::cpu3.inst 40742.187500                       # average overall mshr miss latency
system.l2.demand_avg_mshr_miss_latency::cpu3.data 40519.444064                       # average overall mshr miss latency
system.l2.demand_avg_mshr_miss_latency::cpu4.inst 40775.280899                       # average overall mshr miss latency
system.l2.demand_avg_mshr_miss_latency::cpu4.data 40521.128399                       # average overall mshr miss latency
system.l2.demand_avg_mshr_miss_latency::total 40523.705057                       # average overall mshr miss latency
system.l2.overall_avg_mshr_miss_latency::cpu0.inst 41018.633540                       # average overall mshr miss latency
system.l2.overall_avg_mshr_miss_latency::cpu0.data 41220.973783                       # average overall mshr miss latency
system.l2.overall_avg_mshr_miss_latency::cpu1.inst 40936.507937                       # average overall mshr miss latency
system.l2.overall_avg_mshr_miss_latency::cpu1.data 40518.537799                       # average overall mshr miss latency
system.l2.overall_avg_mshr_miss_latency::cpu2.inst 40756.756757                       # average overall mshr miss latency
system.l2.overall_avg_mshr_miss_latency::cpu2.data 40523.130166                       # average overall mshr miss latency
system.l2.overall_avg_mshr_miss_latency::cpu3.inst 40742.187500                       # average overall mshr miss latency
system.l2.overall_avg_mshr_miss_latency::cpu3.data 40519.444064                       # average overall mshr miss latency
system.l2.overall_avg_mshr_miss_latency::cpu4.inst 40775.280899                       # average overall mshr miss latency
system.l2.overall_avg_mshr_miss_latency::cpu4.data 40521.128399                       # average overall mshr miss latency
system.l2.overall_avg_mshr_miss_latency::total 40523.705057                       # average overall mshr miss latency
system.l2.no_allocate_misses                        0                       # Number of misses that were no-allocate
system.membus.trans_dist::ReadReq              137564                       # Transaction distribution
system.membus.trans_dist::ReadResp             137564                       # Transaction distribution
system.membus.trans_dist::Writeback              2769                       # Transaction distribution
system.membus.trans_dist::UpgradeReq           456919                       # Transaction distribution
system.membus.trans_dist::SCUpgradeReq         377566                       # Transaction distribution
system.membus.trans_dist::UpgradeResp          368906                       # Transaction distribution
system.membus.trans_dist::SCUpgradeFailReq           72                       # Transaction distribution
system.membus.trans_dist::ReadExReq              6927                       # Transaction distribution
system.membus.trans_dist::ReadExResp             3060                       # Transaction distribution
system.membus.pkt_count_system.l2.mem_side::system.physmem.port      1491347                       # Packet count per connected master and slave (bytes)
system.membus.pkt_count::total                1491347                       # Packet count per connected master and slave (bytes)
system.membus.pkt_size_system.l2.mem_side::system.physmem.port      9177152                       # Cumulative packet size per connected master and slave (bytes)
system.membus.pkt_size::total                 9177152                       # Cumulative packet size per connected master and slave (bytes)
system.membus.snoops                           469518                       # Total snoops (count)
system.membus.snoop_fanout::samples            988261                       # Request fanout histogram
system.membus.snoop_fanout::mean                    0                       # Request fanout histogram
system.membus.snoop_fanout::stdev                   0                       # Request fanout histogram
system.membus.snoop_fanout::underflows              0      0.00%      0.00% # Request fanout histogram
system.membus.snoop_fanout::0                  988261    100.00%    100.00% # Request fanout histogram
system.membus.snoop_fanout::1                       0      0.00%    100.00% # Request fanout histogram
system.membus.snoop_fanout::overflows               0      0.00%    100.00% # Request fanout histogram
system.membus.snoop_fanout::min_value               0                       # Request fanout histogram
system.membus.snoop_fanout::max_value               0                       # Request fanout histogram
system.membus.snoop_fanout::total              988261                       # Request fanout histogram
system.membus.reqLayer0.occupancy           767776485                       # Layer occupancy (ticks)
system.membus.reqLayer0.utilization               1.9                       # Layer utilization (%)
system.membus.respLayer1.occupancy         1302074256                       # Layer occupancy (ticks)
system.membus.respLayer1.utilization              3.3                       # Layer utilization (%)
system.tol2bus.trans_dist::ReadReq            1860306                       # Transaction distribution
system.tol2bus.trans_dist::ReadResp           1859915                       # Transaction distribution
system.tol2bus.trans_dist::ReadRespWithInvalidate          391                       # Transaction distribution
system.tol2bus.trans_dist::Writeback             7492                       # Transaction distribution
system.tol2bus.trans_dist::UpgradeReq          456924                       # Transaction distribution
system.tol2bus.trans_dist::SCUpgradeReq        377571                       # Transaction distribution
system.tol2bus.trans_dist::UpgradeResp         834495                       # Transaction distribution
system.tol2bus.trans_dist::SCUpgradeFailReq        44457                       # Transaction distribution
system.tol2bus.trans_dist::UpgradeFailResp        44457                       # Transaction distribution
system.tol2bus.trans_dist::ReadExReq            20243                       # Transaction distribution
system.tol2bus.trans_dist::ReadExResp           20243                       # Transaction distribution
system.tol2bus.pkt_count_system.cpu0.icache.mem_side::system.l2.cpu_side          678                       # Packet count per connected master and slave (bytes)
system.tol2bus.pkt_count_system.cpu0.dcache.mem_side::system.l2.cpu_side          603                       # Packet count per connected master and slave (bytes)
system.tol2bus.pkt_count_system.cpu1.icache.mem_side::system.l2.cpu_side         4860                       # Packet count per connected master and slave (bytes)
system.tol2bus.pkt_count_system.cpu1.dcache.mem_side::system.l2.cpu_side       847743                       # Packet count per connected master and slave (bytes)
system.tol2bus.pkt_count_system.cpu2.icache.mem_side::system.l2.cpu_side         4944                       # Packet count per connected master and slave (bytes)
system.tol2bus.pkt_count_system.cpu2.dcache.mem_side::system.l2.cpu_side       842941                       # Packet count per connected master and slave (bytes)
system.tol2bus.pkt_count_system.cpu3.icache.mem_side::system.l2.cpu_side         4698                       # Packet count per connected master and slave (bytes)
system.tol2bus.pkt_count_system.cpu3.dcache.mem_side::system.l2.cpu_side       860241                       # Packet count per connected master and slave (bytes)
system.tol2bus.pkt_count_system.cpu4.icache.mem_side::system.l2.cpu_side         4330                       # Packet count per connected master and slave (bytes)
system.tol2bus.pkt_count_system.cpu4.dcache.mem_side::system.l2.cpu_side       815750                       # Packet count per connected master and slave (bytes)
system.tol2bus.pkt_count::total               3386788                       # Packet count per connected master and slave (bytes)
system.tol2bus.pkt_size_system.cpu0.icache.mem_side::system.l2.cpu_side        21696                       # Cumulative packet size per connected master and slave (bytes)
system.tol2bus.pkt_size_system.cpu0.dcache.mem_side::system.l2.cpu_side        19584                       # Cumulative packet size per connected master and slave (bytes)
system.tol2bus.pkt_size_system.cpu1.icache.mem_side::system.l2.cpu_side       155520                       # Cumulative packet size per connected master and slave (bytes)
system.tol2bus.pkt_size_system.cpu1.dcache.mem_side::system.l2.cpu_side      3962432                       # Cumulative packet size per connected master and slave (bytes)
system.tol2bus.pkt_size_system.cpu2.icache.mem_side::system.l2.cpu_side       158208                       # Cumulative packet size per connected master and slave (bytes)
system.tol2bus.pkt_size_system.cpu2.dcache.mem_side::system.l2.cpu_side      3838656                       # Cumulative packet size per connected master and slave (bytes)
system.tol2bus.pkt_size_system.cpu3.icache.mem_side::system.l2.cpu_side       150336                       # Cumulative packet size per connected master and slave (bytes)
system.tol2bus.pkt_size_system.cpu3.dcache.mem_side::system.l2.cpu_side      4122176                       # Cumulative packet size per connected master and slave (bytes)
system.tol2bus.pkt_size_system.cpu4.icache.mem_side::system.l2.cpu_side       138560                       # Cumulative packet size per connected master and slave (bytes)
system.tol2bus.pkt_size_system.cpu4.dcache.mem_side::system.l2.cpu_side      3968576                       # Cumulative packet size per connected master and slave (bytes)
system.tol2bus.pkt_size::total               16535744                       # Cumulative packet size per connected master and slave (bytes)
system.tol2bus.snoops                         2139706                       # Total snoops (count)
system.tol2bus.snoop_fanout::samples          2766993                       # Request fanout histogram
system.tol2bus.snoop_fanout::mean                   9                       # Request fanout histogram
system.tol2bus.snoop_fanout::stdev                  0                       # Request fanout histogram
system.tol2bus.snoop_fanout::underflows             0      0.00%      0.00% # Request fanout histogram
system.tol2bus.snoop_fanout::0                      0      0.00%      0.00% # Request fanout histogram
system.tol2bus.snoop_fanout::1                      0      0.00%      0.00% # Request fanout histogram
system.tol2bus.snoop_fanout::2                      0      0.00%      0.00% # Request fanout histogram
system.tol2bus.snoop_fanout::3                      0      0.00%      0.00% # Request fanout histogram
system.tol2bus.snoop_fanout::4                      0      0.00%      0.00% # Request fanout histogram
system.tol2bus.snoop_fanout::5                      0      0.00%      0.00% # Request fanout histogram
system.tol2bus.snoop_fanout::6                      0      0.00%      0.00% # Request fanout histogram
system.tol2bus.snoop_fanout::7                      0      0.00%      0.00% # Request fanout histogram
system.tol2bus.snoop_fanout::8                      0      0.00%      0.00% # Request fanout histogram
system.tol2bus.snoop_fanout::9                2766993    100.00%    100.00% # Request fanout histogram
system.tol2bus.snoop_fanout::10                     0      0.00%    100.00% # Request fanout histogram
system.tol2bus.snoop_fanout::overflows              0      0.00%    100.00% # Request fanout histogram
system.tol2bus.snoop_fanout::min_value              9                       # Request fanout histogram
system.tol2bus.snoop_fanout::max_value              9                       # Request fanout histogram
system.tol2bus.snoop_fanout::total            2766993                       # Request fanout histogram
system.tol2bus.reqLayer0.occupancy         1416787204                       # Layer occupancy (ticks)
system.tol2bus.reqLayer0.utilization              3.5                       # Layer utilization (%)
system.tol2bus.respLayer0.occupancy            509498                       # Layer occupancy (ticks)
system.tol2bus.respLayer0.utilization             0.0                       # Layer utilization (%)
system.tol2bus.respLayer1.occupancy            445994                       # Layer occupancy (ticks)
system.tol2bus.respLayer1.utilization             0.0                       # Layer utilization (%)
system.tol2bus.respLayer4.occupancy           3662945                       # Layer occupancy (ticks)
system.tol2bus.respLayer4.utilization             0.0                       # Layer utilization (%)
system.tol2bus.respLayer5.occupancy         893525178                       # Layer occupancy (ticks)
system.tol2bus.respLayer5.utilization             2.2                       # Layer utilization (%)
system.tol2bus.respLayer8.occupancy           3752865                       # Layer occupancy (ticks)
system.tol2bus.respLayer8.utilization             0.0                       # Layer utilization (%)
system.tol2bus.respLayer9.occupancy         896759092                       # Layer occupancy (ticks)
system.tol2bus.respLayer9.utilization             2.2                       # Layer utilization (%)
system.tol2bus.respLayer12.occupancy          3562870                       # Layer occupancy (ticks)
system.tol2bus.respLayer12.utilization            0.0                       # Layer utilization (%)
system.tol2bus.respLayer13.occupancy        906803769                       # Layer occupancy (ticks)
system.tol2bus.respLayer13.utilization            2.3                       # Layer utilization (%)
system.tol2bus.respLayer16.occupancy          3278889                       # Layer occupancy (ticks)
system.tol2bus.respLayer16.utilization            0.0                       # Layer utilization (%)
system.tol2bus.respLayer17.occupancy        836531919                       # Layer occupancy (ticks)
system.tol2bus.respLayer17.utilization            2.1                       # Layer utilization (%)

---------- End Simulation Statistics   ----------
