
---------- Begin Simulation Statistics ----------
sim_seconds                                  0.002422                       # Number of seconds simulated
sim_ticks                                  2421503000                       # Number of ticks simulated
final_tick                                 2421503000                       # Number of ticks from beginning of simulation (restored from checkpoints and never reset)
sim_freq                                 1000000000000                       # Frequency of simulated ticks
host_inst_rate                                 172645                       # Simulator instruction rate (inst/s)
host_op_rate                                   176263                       # Simulator op (including micro ops) rate (op/s)
host_tick_rate                               18874444                       # Simulator tick rate (ticks/s)
host_mem_usage                                 742624                       # Number of bytes of host memory used
host_seconds                                   128.30                       # Real time elapsed on the host
sim_insts                                    22149579                       # Number of instructions simulated
sim_ops                                      22613667                       # Number of ops (including micro ops) simulated
system.voltage_domain.voltage                       1                       # Voltage in Volts
system.clk_domain.clock                          1000                       # Clock period in ticks
system.physmem.bytes_read::cpu0.inst            21056                       # Number of bytes read from this memory
system.physmem.bytes_read::cpu0.data            67200                       # Number of bytes read from this memory
system.physmem.bytes_read::cpu1.inst             2944                       # Number of bytes read from this memory
system.physmem.bytes_read::cpu1.data             8640                       # Number of bytes read from this memory
system.physmem.bytes_read::cpu2.inst             4480                       # Number of bytes read from this memory
system.physmem.bytes_read::cpu2.data            10688                       # Number of bytes read from this memory
system.physmem.bytes_read::cpu3.inst             2240                       # Number of bytes read from this memory
system.physmem.bytes_read::cpu3.data            10560                       # Number of bytes read from this memory
system.physmem.bytes_read::cpu4.inst             5696                       # Number of bytes read from this memory
system.physmem.bytes_read::cpu4.data            15616                       # Number of bytes read from this memory
system.physmem.bytes_read::cpu5.inst             4160                       # Number of bytes read from this memory
system.physmem.bytes_read::cpu5.data            14848                       # Number of bytes read from this memory
system.physmem.bytes_read::cpu6.inst             1152                       # Number of bytes read from this memory
system.physmem.bytes_read::cpu6.data            15744                       # Number of bytes read from this memory
system.physmem.bytes_read::cpu7.inst             1984                       # Number of bytes read from this memory
system.physmem.bytes_read::cpu7.data            12352                       # Number of bytes read from this memory
system.physmem.bytes_read::cpu8.inst             4480                       # Number of bytes read from this memory
system.physmem.bytes_read::cpu8.data             7616                       # Number of bytes read from this memory
system.physmem.bytes_read::total               211456                       # Number of bytes read from this memory
system.physmem.bytes_inst_read::cpu0.inst        21056                       # Number of instructions bytes read from this memory
system.physmem.bytes_inst_read::cpu1.inst         2944                       # Number of instructions bytes read from this memory
system.physmem.bytes_inst_read::cpu2.inst         4480                       # Number of instructions bytes read from this memory
system.physmem.bytes_inst_read::cpu3.inst         2240                       # Number of instructions bytes read from this memory
system.physmem.bytes_inst_read::cpu4.inst         5696                       # Number of instructions bytes read from this memory
system.physmem.bytes_inst_read::cpu5.inst         4160                       # Number of instructions bytes read from this memory
system.physmem.bytes_inst_read::cpu6.inst         1152                       # Number of instructions bytes read from this memory
system.physmem.bytes_inst_read::cpu7.inst         1984                       # Number of instructions bytes read from this memory
system.physmem.bytes_inst_read::cpu8.inst         4480                       # Number of instructions bytes read from this memory
system.physmem.bytes_inst_read::total           48192                       # Number of instructions bytes read from this memory
system.physmem.bytes_written::writebacks        11968                       # Number of bytes written to this memory
system.physmem.bytes_written::total             11968                       # Number of bytes written to this memory
system.physmem.num_reads::cpu0.inst               329                       # Number of read requests responded to by this memory
system.physmem.num_reads::cpu0.data              1050                       # Number of read requests responded to by this memory
system.physmem.num_reads::cpu1.inst                46                       # Number of read requests responded to by this memory
system.physmem.num_reads::cpu1.data               135                       # Number of read requests responded to by this memory
system.physmem.num_reads::cpu2.inst                70                       # Number of read requests responded to by this memory
system.physmem.num_reads::cpu2.data               167                       # Number of read requests responded to by this memory
system.physmem.num_reads::cpu3.inst                35                       # Number of read requests responded to by this memory
system.physmem.num_reads::cpu3.data               165                       # Number of read requests responded to by this memory
system.physmem.num_reads::cpu4.inst                89                       # Number of read requests responded to by this memory
system.physmem.num_reads::cpu4.data               244                       # Number of read requests responded to by this memory
system.physmem.num_reads::cpu5.inst                65                       # Number of read requests responded to by this memory
system.physmem.num_reads::cpu5.data               232                       # Number of read requests responded to by this memory
system.physmem.num_reads::cpu6.inst                18                       # Number of read requests responded to by this memory
system.physmem.num_reads::cpu6.data               246                       # Number of read requests responded to by this memory
system.physmem.num_reads::cpu7.inst                31                       # Number of read requests responded to by this memory
system.physmem.num_reads::cpu7.data               193                       # Number of read requests responded to by this memory
system.physmem.num_reads::cpu8.inst                70                       # Number of read requests responded to by this memory
system.physmem.num_reads::cpu8.data               119                       # Number of read requests responded to by this memory
system.physmem.num_reads::total                  3304                       # Number of read requests responded to by this memory
system.physmem.num_writes::writebacks             187                       # Number of write requests responded to by this memory
system.physmem.num_writes::total                  187                       # Number of write requests responded to by this memory
system.physmem.bw_read::cpu0.inst             8695426                       # Total read bandwidth from this memory (bytes/s)
system.physmem.bw_read::cpu0.data            27751359                       # Total read bandwidth from this memory (bytes/s)
system.physmem.bw_read::cpu1.inst             1215774                       # Total read bandwidth from this memory (bytes/s)
system.physmem.bw_read::cpu1.data             3568032                       # Total read bandwidth from this memory (bytes/s)
system.physmem.bw_read::cpu2.inst             1850091                       # Total read bandwidth from this memory (bytes/s)
system.physmem.bw_read::cpu2.data             4413788                       # Total read bandwidth from this memory (bytes/s)
system.physmem.bw_read::cpu3.inst              925045                       # Total read bandwidth from this memory (bytes/s)
system.physmem.bw_read::cpu3.data             4360928                       # Total read bandwidth from this memory (bytes/s)
system.physmem.bw_read::cpu4.inst             2352258                       # Total read bandwidth from this memory (bytes/s)
system.physmem.bw_read::cpu4.data             6448887                       # Total read bandwidth from this memory (bytes/s)
system.physmem.bw_read::cpu5.inst             1717941                       # Total read bandwidth from this memory (bytes/s)
system.physmem.bw_read::cpu5.data             6131729                       # Total read bandwidth from this memory (bytes/s)
system.physmem.bw_read::cpu6.inst              475738                       # Total read bandwidth from this memory (bytes/s)
system.physmem.bw_read::cpu6.data             6501747                       # Total read bandwidth from this memory (bytes/s)
system.physmem.bw_read::cpu7.inst              819326                       # Total read bandwidth from this memory (bytes/s)
system.physmem.bw_read::cpu7.data             5100964                       # Total read bandwidth from this memory (bytes/s)
system.physmem.bw_read::cpu8.inst             1850091                       # Total read bandwidth from this memory (bytes/s)
system.physmem.bw_read::cpu8.data             3145154                       # Total read bandwidth from this memory (bytes/s)
system.physmem.bw_read::total                87324278                       # Total read bandwidth from this memory (bytes/s)
system.physmem.bw_inst_read::cpu0.inst        8695426                       # Instruction read bandwidth from this memory (bytes/s)
system.physmem.bw_inst_read::cpu1.inst        1215774                       # Instruction read bandwidth from this memory (bytes/s)
system.physmem.bw_inst_read::cpu2.inst        1850091                       # Instruction read bandwidth from this memory (bytes/s)
system.physmem.bw_inst_read::cpu3.inst         925045                       # Instruction read bandwidth from this memory (bytes/s)
system.physmem.bw_inst_read::cpu4.inst        2352258                       # Instruction read bandwidth from this memory (bytes/s)
system.physmem.bw_inst_read::cpu5.inst        1717941                       # Instruction read bandwidth from this memory (bytes/s)
system.physmem.bw_inst_read::cpu6.inst         475738                       # Instruction read bandwidth from this memory (bytes/s)
system.physmem.bw_inst_read::cpu7.inst         819326                       # Instruction read bandwidth from this memory (bytes/s)
system.physmem.bw_inst_read::cpu8.inst        1850091                       # Instruction read bandwidth from this memory (bytes/s)
system.physmem.bw_inst_read::total           19901689                       # Instruction read bandwidth from this memory (bytes/s)
system.physmem.bw_write::writebacks           4942385                       # Write bandwidth from this memory (bytes/s)
system.physmem.bw_write::total                4942385                       # Write bandwidth from this memory (bytes/s)
system.physmem.bw_total::writebacks           4942385                       # Total bandwidth to/from this memory (bytes/s)
system.physmem.bw_total::cpu0.inst            8695426                       # Total bandwidth to/from this memory (bytes/s)
system.physmem.bw_total::cpu0.data           27751359                       # Total bandwidth to/from this memory (bytes/s)
system.physmem.bw_total::cpu1.inst            1215774                       # Total bandwidth to/from this memory (bytes/s)
system.physmem.bw_total::cpu1.data            3568032                       # Total bandwidth to/from this memory (bytes/s)
system.physmem.bw_total::cpu2.inst            1850091                       # Total bandwidth to/from this memory (bytes/s)
system.physmem.bw_total::cpu2.data            4413788                       # Total bandwidth to/from this memory (bytes/s)
system.physmem.bw_total::cpu3.inst             925045                       # Total bandwidth to/from this memory (bytes/s)
system.physmem.bw_total::cpu3.data            4360928                       # Total bandwidth to/from this memory (bytes/s)
system.physmem.bw_total::cpu4.inst            2352258                       # Total bandwidth to/from this memory (bytes/s)
system.physmem.bw_total::cpu4.data            6448887                       # Total bandwidth to/from this memory (bytes/s)
system.physmem.bw_total::cpu5.inst            1717941                       # Total bandwidth to/from this memory (bytes/s)
system.physmem.bw_total::cpu5.data            6131729                       # Total bandwidth to/from this memory (bytes/s)
system.physmem.bw_total::cpu6.inst             475738                       # Total bandwidth to/from this memory (bytes/s)
system.physmem.bw_total::cpu6.data            6501747                       # Total bandwidth to/from this memory (bytes/s)
system.physmem.bw_total::cpu7.inst             819326                       # Total bandwidth to/from this memory (bytes/s)
system.physmem.bw_total::cpu7.data            5100964                       # Total bandwidth to/from this memory (bytes/s)
system.physmem.bw_total::cpu8.inst            1850091                       # Total bandwidth to/from this memory (bytes/s)
system.physmem.bw_total::cpu8.data            3145154                       # Total bandwidth to/from this memory (bytes/s)
system.physmem.bw_total::total               92266662                       # Total bandwidth to/from this memory (bytes/s)
system.cpu0.branchPred.lookups                1199697                       # Number of BP lookups
system.cpu0.branchPred.condPredicted          1194345                       # Number of conditional branches predicted
system.cpu0.branchPred.condIncorrect              753                       # Number of conditional branches incorrect
system.cpu0.branchPred.BTBLookups             1193133                       # Number of BTB lookups
system.cpu0.branchPred.BTBHits                1192658                       # Number of BTB hits
system.cpu0.branchPred.BTBCorrect                   0                       # Number of correct BTB predictions (this stat may not work properly.
system.cpu0.branchPred.BTBHitPct            99.960189                       # BTB Hit Percentage
system.cpu0.branchPred.usedRAS                   2501                       # Number of times the RAS was used to get a target.
system.cpu0.branchPred.RASInCorrect                59                       # Number of incorrect RAS predictions.
system.cpu0.dstage2_mmu.stage2_tlb.walker.walks            0                       # Table walker walks requested
system.cpu0.dstage2_mmu.stage2_tlb.walker.walkRequestOrigin_Requested::Data            0                       # Table walker requests started/completed, data/inst
system.cpu0.dstage2_mmu.stage2_tlb.walker.walkRequestOrigin_Requested::Inst            0                       # Table walker requests started/completed, data/inst
system.cpu0.dstage2_mmu.stage2_tlb.walker.walkRequestOrigin_Requested::total            0                       # Table walker requests started/completed, data/inst
system.cpu0.dstage2_mmu.stage2_tlb.walker.walkRequestOrigin_Completed::Data            0                       # Table walker requests started/completed, data/inst
system.cpu0.dstage2_mmu.stage2_tlb.walker.walkRequestOrigin_Completed::Inst            0                       # Table walker requests started/completed, data/inst
system.cpu0.dstage2_mmu.stage2_tlb.walker.walkRequestOrigin_Completed::total            0                       # Table walker requests started/completed, data/inst
system.cpu0.dstage2_mmu.stage2_tlb.walker.walkRequestOrigin::total            0                       # Table walker requests started/completed, data/inst
system.cpu0.dstage2_mmu.stage2_tlb.inst_hits            0                       # ITB inst hits
system.cpu0.dstage2_mmu.stage2_tlb.inst_misses            0                       # ITB inst misses
system.cpu0.dstage2_mmu.stage2_tlb.read_hits            0                       # DTB read hits
system.cpu0.dstage2_mmu.stage2_tlb.read_misses            0                       # DTB read misses
system.cpu0.dstage2_mmu.stage2_tlb.write_hits            0                       # DTB write hits
system.cpu0.dstage2_mmu.stage2_tlb.write_misses            0                       # DTB write misses
system.cpu0.dstage2_mmu.stage2_tlb.flush_tlb            0                       # Number of times complete TLB was flushed
system.cpu0.dstage2_mmu.stage2_tlb.flush_tlb_mva            0                       # Number of times TLB was flushed by MVA
system.cpu0.dstage2_mmu.stage2_tlb.flush_tlb_mva_asid            0                       # Number of times TLB was flushed by MVA & ASID
system.cpu0.dstage2_mmu.stage2_tlb.flush_tlb_asid            0                       # Number of times TLB was flushed by ASID
system.cpu0.dstage2_mmu.stage2_tlb.flush_entries            0                       # Number of entries that have been flushed from TLB
system.cpu0.dstage2_mmu.stage2_tlb.align_faults            0                       # Number of TLB faults due to alignment restrictions
system.cpu0.dstage2_mmu.stage2_tlb.prefetch_faults            0                       # Number of TLB faults due to prefetch
system.cpu0.dstage2_mmu.stage2_tlb.domain_faults            0                       # Number of TLB faults due to domain restrictions
system.cpu0.dstage2_mmu.stage2_tlb.perms_faults            0                       # Number of TLB faults due to permissions restrictions
system.cpu0.dstage2_mmu.stage2_tlb.read_accesses            0                       # DTB read accesses
system.cpu0.dstage2_mmu.stage2_tlb.write_accesses            0                       # DTB write accesses
system.cpu0.dstage2_mmu.stage2_tlb.inst_accesses            0                       # ITB inst accesses
system.cpu0.dstage2_mmu.stage2_tlb.hits             0                       # DTB hits
system.cpu0.dstage2_mmu.stage2_tlb.misses            0                       # DTB misses
system.cpu0.dstage2_mmu.stage2_tlb.accesses            0                       # DTB accesses
system.cpu0.dtb.walker.walks                        0                       # Table walker walks requested
system.cpu0.dtb.walker.walkRequestOrigin_Requested::Data            0                       # Table walker requests started/completed, data/inst
system.cpu0.dtb.walker.walkRequestOrigin_Requested::Inst            0                       # Table walker requests started/completed, data/inst
system.cpu0.dtb.walker.walkRequestOrigin_Requested::total            0                       # Table walker requests started/completed, data/inst
system.cpu0.dtb.walker.walkRequestOrigin_Completed::Data            0                       # Table walker requests started/completed, data/inst
system.cpu0.dtb.walker.walkRequestOrigin_Completed::Inst            0                       # Table walker requests started/completed, data/inst
system.cpu0.dtb.walker.walkRequestOrigin_Completed::total            0                       # Table walker requests started/completed, data/inst
system.cpu0.dtb.walker.walkRequestOrigin::total            0                       # Table walker requests started/completed, data/inst
system.cpu0.dtb.inst_hits                           0                       # ITB inst hits
system.cpu0.dtb.inst_misses                         0                       # ITB inst misses
system.cpu0.dtb.read_hits                           0                       # DTB read hits
system.cpu0.dtb.read_misses                         0                       # DTB read misses
system.cpu0.dtb.write_hits                          0                       # DTB write hits
system.cpu0.dtb.write_misses                        0                       # DTB write misses
system.cpu0.dtb.flush_tlb                           0                       # Number of times complete TLB was flushed
system.cpu0.dtb.flush_tlb_mva                       0                       # Number of times TLB was flushed by MVA
system.cpu0.dtb.flush_tlb_mva_asid                  0                       # Number of times TLB was flushed by MVA & ASID
system.cpu0.dtb.flush_tlb_asid                      0                       # Number of times TLB was flushed by ASID
system.cpu0.dtb.flush_entries                       0                       # Number of entries that have been flushed from TLB
system.cpu0.dtb.align_faults                        0                       # Number of TLB faults due to alignment restrictions
system.cpu0.dtb.prefetch_faults                     0                       # Number of TLB faults due to prefetch
system.cpu0.dtb.domain_faults                       0                       # Number of TLB faults due to domain restrictions
system.cpu0.dtb.perms_faults                        0                       # Number of TLB faults due to permissions restrictions
system.cpu0.dtb.read_accesses                       0                       # DTB read accesses
system.cpu0.dtb.write_accesses                      0                       # DTB write accesses
system.cpu0.dtb.inst_accesses                       0                       # ITB inst accesses
system.cpu0.dtb.hits                                0                       # DTB hits
system.cpu0.dtb.misses                              0                       # DTB misses
system.cpu0.dtb.accesses                            0                       # DTB accesses
system.cpu0.istage2_mmu.stage2_tlb.walker.walks            0                       # Table walker walks requested
system.cpu0.istage2_mmu.stage2_tlb.walker.walkRequestOrigin_Requested::Data            0                       # Table walker requests started/completed, data/inst
system.cpu0.istage2_mmu.stage2_tlb.walker.walkRequestOrigin_Requested::Inst            0                       # Table walker requests started/completed, data/inst
system.cpu0.istage2_mmu.stage2_tlb.walker.walkRequestOrigin_Requested::total            0                       # Table walker requests started/completed, data/inst
system.cpu0.istage2_mmu.stage2_tlb.walker.walkRequestOrigin_Completed::Data            0                       # Table walker requests started/completed, data/inst
system.cpu0.istage2_mmu.stage2_tlb.walker.walkRequestOrigin_Completed::Inst            0                       # Table walker requests started/completed, data/inst
system.cpu0.istage2_mmu.stage2_tlb.walker.walkRequestOrigin_Completed::total            0                       # Table walker requests started/completed, data/inst
system.cpu0.istage2_mmu.stage2_tlb.walker.walkRequestOrigin::total            0                       # Table walker requests started/completed, data/inst
system.cpu0.istage2_mmu.stage2_tlb.inst_hits            0                       # ITB inst hits
system.cpu0.istage2_mmu.stage2_tlb.inst_misses            0                       # ITB inst misses
system.cpu0.istage2_mmu.stage2_tlb.read_hits            0                       # DTB read hits
system.cpu0.istage2_mmu.stage2_tlb.read_misses            0                       # DTB read misses
system.cpu0.istage2_mmu.stage2_tlb.write_hits            0                       # DTB write hits
system.cpu0.istage2_mmu.stage2_tlb.write_misses            0                       # DTB write misses
system.cpu0.istage2_mmu.stage2_tlb.flush_tlb            0                       # Number of times complete TLB was flushed
system.cpu0.istage2_mmu.stage2_tlb.flush_tlb_mva            0                       # Number of times TLB was flushed by MVA
system.cpu0.istage2_mmu.stage2_tlb.flush_tlb_mva_asid            0                       # Number of times TLB was flushed by MVA & ASID
system.cpu0.istage2_mmu.stage2_tlb.flush_tlb_asid            0                       # Number of times TLB was flushed by ASID
system.cpu0.istage2_mmu.stage2_tlb.flush_entries            0                       # Number of entries that have been flushed from TLB
system.cpu0.istage2_mmu.stage2_tlb.align_faults            0                       # Number of TLB faults due to alignment restrictions
system.cpu0.istage2_mmu.stage2_tlb.prefetch_faults            0                       # Number of TLB faults due to prefetch
system.cpu0.istage2_mmu.stage2_tlb.domain_faults            0                       # Number of TLB faults due to domain restrictions
system.cpu0.istage2_mmu.stage2_tlb.perms_faults            0                       # Number of TLB faults due to permissions restrictions
system.cpu0.istage2_mmu.stage2_tlb.read_accesses            0                       # DTB read accesses
system.cpu0.istage2_mmu.stage2_tlb.write_accesses            0                       # DTB write accesses
system.cpu0.istage2_mmu.stage2_tlb.inst_accesses            0                       # ITB inst accesses
system.cpu0.istage2_mmu.stage2_tlb.hits             0                       # DTB hits
system.cpu0.istage2_mmu.stage2_tlb.misses            0                       # DTB misses
system.cpu0.istage2_mmu.stage2_tlb.accesses            0                       # DTB accesses
system.cpu0.itb.walker.walks                        0                       # Table walker walks requested
system.cpu0.itb.walker.walkRequestOrigin_Requested::Data            0                       # Table walker requests started/completed, data/inst
system.cpu0.itb.walker.walkRequestOrigin_Requested::Inst            0                       # Table walker requests started/completed, data/inst
system.cpu0.itb.walker.walkRequestOrigin_Requested::total            0                       # Table walker requests started/completed, data/inst
system.cpu0.itb.walker.walkRequestOrigin_Completed::Data            0                       # Table walker requests started/completed, data/inst
system.cpu0.itb.walker.walkRequestOrigin_Completed::Inst            0                       # Table walker requests started/completed, data/inst
system.cpu0.itb.walker.walkRequestOrigin_Completed::total            0                       # Table walker requests started/completed, data/inst
system.cpu0.itb.walker.walkRequestOrigin::total            0                       # Table walker requests started/completed, data/inst
system.cpu0.itb.inst_hits                           0                       # ITB inst hits
system.cpu0.itb.inst_misses                         0                       # ITB inst misses
system.cpu0.itb.read_hits                           0                       # DTB read hits
system.cpu0.itb.read_misses                         0                       # DTB read misses
system.cpu0.itb.write_hits                          0                       # DTB write hits
system.cpu0.itb.write_misses                        0                       # DTB write misses
system.cpu0.itb.flush_tlb                           0                       # Number of times complete TLB was flushed
system.cpu0.itb.flush_tlb_mva                       0                       # Number of times TLB was flushed by MVA
system.cpu0.itb.flush_tlb_mva_asid                  0                       # Number of times TLB was flushed by MVA & ASID
system.cpu0.itb.flush_tlb_asid                      0                       # Number of times TLB was flushed by ASID
system.cpu0.itb.flush_entries                       0                       # Number of entries that have been flushed from TLB
system.cpu0.itb.align_faults                        0                       # Number of TLB faults due to alignment restrictions
system.cpu0.itb.prefetch_faults                     0                       # Number of TLB faults due to prefetch
system.cpu0.itb.domain_faults                       0                       # Number of TLB faults due to domain restrictions
system.cpu0.itb.perms_faults                        0                       # Number of TLB faults due to permissions restrictions
system.cpu0.itb.read_accesses                       0                       # DTB read accesses
system.cpu0.itb.write_accesses                      0                       # DTB write accesses
system.cpu0.itb.inst_accesses                       0                       # ITB inst accesses
system.cpu0.itb.hits                                0                       # DTB hits
system.cpu0.itb.misses                              0                       # DTB misses
system.cpu0.itb.accesses                            0                       # DTB accesses
system.cpu0.workload.num_syscalls               21120                       # Number of system calls
system.cpu0.numCycles                         2421504                       # number of cpu cycles simulated
system.cpu0.numWorkItemsStarted                     0                       # number of work items this cpu started
system.cpu0.numWorkItemsCompleted                   0                       # number of work items this cpu completed
system.cpu0.fetch.icacheStallCycles             13254                       # Number of cycles fetch is stalled on an Icache miss
system.cpu0.fetch.Insts                       5989641                       # Number of instructions fetch has processed
system.cpu0.fetch.Branches                    1199697                       # Number of branches that fetch encountered
system.cpu0.fetch.predictedBranches           1195159                       # Number of branches that fetch has predicted taken
system.cpu0.fetch.Cycles                      2400065                       # Number of cycles fetch has run and was not squashing or blocked
system.cpu0.fetch.SquashCycles                   1582                       # Number of cycles fetch has spent squashing
system.cpu0.fetch.PendingTrapStallCycles          165                       # Number of stall cycles due to pending traps
system.cpu0.fetch.CacheLines                     7101                       # Number of cache lines fetched
system.cpu0.fetch.IcacheSquashes                  275                       # Number of outstanding Icache misses that were squashed
system.cpu0.fetch.rateDist::samples           2414275                       # Number of instructions fetched each cycle (Total)
system.cpu0.fetch.rateDist::mean             2.483119                       # Number of instructions fetched each cycle (Total)
system.cpu0.fetch.rateDist::stdev            0.542763                       # Number of instructions fetched each cycle (Total)
system.cpu0.fetch.rateDist::underflows              0      0.00%      0.00% # Number of instructions fetched each cycle (Total)
system.cpu0.fetch.rateDist::0                   17102      0.71%      0.71% # Number of instructions fetched each cycle (Total)
system.cpu0.fetch.rateDist::1                    2866      0.12%      0.83% # Number of instructions fetched each cycle (Total)
system.cpu0.fetch.rateDist::2                 1190854     49.33%     50.15% # Number of instructions fetched each cycle (Total)
system.cpu0.fetch.rateDist::3                 1203453     49.85%    100.00% # Number of instructions fetched each cycle (Total)
system.cpu0.fetch.rateDist::overflows               0      0.00%    100.00% # Number of instructions fetched each cycle (Total)
system.cpu0.fetch.rateDist::min_value               0                       # Number of instructions fetched each cycle (Total)
system.cpu0.fetch.rateDist::max_value               3                       # Number of instructions fetched each cycle (Total)
system.cpu0.fetch.rateDist::total             2414275                       # Number of instructions fetched each cycle (Total)
system.cpu0.fetch.branchRate                 0.495435                       # Number of branch fetches per cycle
system.cpu0.fetch.rate                       2.473521                       # Number of inst fetches per cycle
system.cpu0.decode.IdleCycles                   12104                       # Number of cycles decode is idle
system.cpu0.decode.BlockedCycles                 5622                       # Number of cycles decode is blocked
system.cpu0.decode.RunCycles                  2395391                       # Number of cycles decode is running
system.cpu0.decode.UnblockCycles                  552                       # Number of cycles decode is unblocking
system.cpu0.decode.SquashCycles                   606                       # Number of cycles decode is squashing
system.cpu0.decode.BranchResolved                2493                       # Number of times decode resolved a branch
system.cpu0.decode.BranchMispred                  205                       # Number of times decode detected a branch misprediction
system.cpu0.decode.DecodedInsts               5991557                       # Number of instructions handled by decode
system.cpu0.decode.SquashedInsts                  417                       # Number of squashed instructions handled by decode
system.cpu0.rename.SquashCycles                   606                       # Number of cycles rename is squashing
system.cpu0.rename.IdleCycles                   12773                       # Number of cycles rename is idle
system.cpu0.rename.BlockCycles                    511                       # Number of cycles rename is blocking
system.cpu0.rename.serializeStallCycles          2739                       # count of cycles rename stalled for serializing inst
system.cpu0.rename.RunCycles                  2395193                       # Number of cycles rename is running
system.cpu0.rename.UnblockCycles                 2453                       # Number of cycles rename is unblocking
system.cpu0.rename.RenamedInsts               5990465                       # Number of instructions processed by rename
system.cpu0.rename.SQFullEvents                  2349                       # Number of times rename has blocked due to SQ full
system.cpu0.rename.RenamedOperands            5992371                       # Number of destination operands rename has renamed
system.cpu0.rename.RenameLookups             27542664                       # Number of register rename lookups that rename has made
system.cpu0.rename.int_rename_lookups         5992467                       # Number of integer rename lookups
system.cpu0.rename.fp_rename_lookups               16                       # Number of floating rename lookups
system.cpu0.rename.CommittedMaps              5984164                       # Number of HB maps that are committed
system.cpu0.rename.UndoneMaps                    8180                       # Number of HB maps that are undone due to squashing
system.cpu0.rename.serializingInsts                63                       # count of serializing insts renamed
system.cpu0.rename.tempSerializingInsts            64                       # count of temporary serializing insts renamed
system.cpu0.rename.skidInsts                     1108                       # count of insts added to the skid buffer
system.cpu0.memDep0.insertedLoads             2380698                       # Number of loads inserted to the mem dependence unit.
system.cpu0.memDep0.insertedStores            1194046                       # Number of stores inserted to the mem dependence unit.
system.cpu0.memDep0.conflictingLoads          1187912                       # Number of conflicting loads.
system.cpu0.memDep0.conflictingStores         1187850                       # Number of conflicting stores.
system.cpu0.iq.iqInstsAdded                   5988439                       # Number of instructions added to the IQ (excludes non-spec)
system.cpu0.iq.iqNonSpecInstsAdded                 87                       # Number of non-speculative instructions added to the IQ
system.cpu0.iq.iqInstsIssued                  5986731                       # Number of instructions issued
system.cpu0.iq.iqSquashedInstsIssued              142                       # Number of squashed instructions issued
system.cpu0.iq.iqSquashedInstsExamined           5260                       # Number of squashed instructions iterated over during squash; mainly for profiling
system.cpu0.iq.iqSquashedOperandsExamined        12606                       # Number of squashed operands that are examined and possibly removed from graph
system.cpu0.iq.iqSquashedNonSpecRemoved             7                       # Number of squashed non-spec instructions that were removed
system.cpu0.iq.issued_per_cycle::samples      2414275                       # Number of insts issued each cycle
system.cpu0.iq.issued_per_cycle::mean        2.479722                       # Number of insts issued each cycle
system.cpu0.iq.issued_per_cycle::stdev       0.735717                       # Number of insts issued each cycle
system.cpu0.iq.issued_per_cycle::underflows            0      0.00%      0.00% # Number of insts issued each cycle
system.cpu0.iq.issued_per_cycle::0              16078      0.67%      0.67% # Number of insts issued each cycle
system.cpu0.iq.issued_per_cycle::1             303876     12.59%     13.25% # Number of insts issued each cycle
system.cpu0.iq.issued_per_cycle::2             600108     24.86%     38.11% # Number of insts issued each cycle
system.cpu0.iq.issued_per_cycle::3            1494213     61.89%    100.00% # Number of insts issued each cycle
system.cpu0.iq.issued_per_cycle::overflows            0      0.00%    100.00% # Number of insts issued each cycle
system.cpu0.iq.issued_per_cycle::min_value            0                       # Number of insts issued each cycle
system.cpu0.iq.issued_per_cycle::max_value            3                       # Number of insts issued each cycle
system.cpu0.iq.issued_per_cycle::total        2414275                       # Number of insts issued each cycle
system.cpu0.iq.fu_full::No_OpClass                  0                       # attempts to use FU when none available
system.cpu0.iq.fu_full::IntAlu                      0                       # attempts to use FU when none available
system.cpu0.iq.fu_full::IntMult                     0                       # attempts to use FU when none available
system.cpu0.iq.fu_full::IntDiv                      0                       # attempts to use FU when none available
system.cpu0.iq.fu_full::FloatAdd                    0                       # attempts to use FU when none available
system.cpu0.iq.fu_full::FloatCmp                    0                       # attempts to use FU when none available
system.cpu0.iq.fu_full::FloatCvt                    0                       # attempts to use FU when none available
system.cpu0.iq.fu_full::FloatMult                   0                       # attempts to use FU when none available
system.cpu0.iq.fu_full::FloatDiv                    0                       # attempts to use FU when none available
system.cpu0.iq.fu_full::FloatSqrt                   0                       # attempts to use FU when none available
system.cpu0.iq.fu_full::SimdAdd                     0                       # attempts to use FU when none available
system.cpu0.iq.fu_full::SimdAddAcc                  0                       # attempts to use FU when none available
system.cpu0.iq.fu_full::SimdAlu                     0                       # attempts to use FU when none available
system.cpu0.iq.fu_full::SimdCmp                     0                       # attempts to use FU when none available
system.cpu0.iq.fu_full::SimdCvt                     0                       # attempts to use FU when none available
system.cpu0.iq.fu_full::SimdMisc                    0                       # attempts to use FU when none available
system.cpu0.iq.fu_full::SimdMult                    0                       # attempts to use FU when none available
system.cpu0.iq.fu_full::SimdMultAcc                 0                       # attempts to use FU when none available
system.cpu0.iq.fu_full::SimdShift                   0                       # attempts to use FU when none available
system.cpu0.iq.fu_full::SimdShiftAcc                0                       # attempts to use FU when none available
system.cpu0.iq.fu_full::SimdSqrt                    0                       # attempts to use FU when none available
system.cpu0.iq.fu_full::SimdFloatAdd                0                       # attempts to use FU when none available
system.cpu0.iq.fu_full::SimdFloatAlu                0                       # attempts to use FU when none available
system.cpu0.iq.fu_full::SimdFloatCmp                0                       # attempts to use FU when none available
system.cpu0.iq.fu_full::SimdFloatCvt                0                       # attempts to use FU when none available
system.cpu0.iq.fu_full::SimdFloatDiv                0                       # attempts to use FU when none available
system.cpu0.iq.fu_full::SimdFloatMisc               0                       # attempts to use FU when none available
system.cpu0.iq.fu_full::SimdFloatMult               0                       # attempts to use FU when none available
system.cpu0.iq.fu_full::SimdFloatMultAcc            0                       # attempts to use FU when none available
system.cpu0.iq.fu_full::SimdFloatSqrt               0                       # attempts to use FU when none available
system.cpu0.iq.fu_full::MemRead                     0                       # attempts to use FU when none available
system.cpu0.iq.fu_full::MemWrite                    0                       # attempts to use FU when none available
system.cpu0.iq.fu_full::IprAccess                   0                       # attempts to use FU when none available
system.cpu0.iq.fu_full::InstPrefetch                0                       # attempts to use FU when none available
system.cpu0.iq.FU_type_0::No_OpClass                0      0.00%      0.00% # Type of FU issued
system.cpu0.iq.FU_type_0::IntAlu              2412408     40.30%     40.30% # Type of FU issued
system.cpu0.iq.FU_type_0::IntMult                   6      0.00%     40.30% # Type of FU issued
system.cpu0.iq.FU_type_0::IntDiv                    0      0.00%     40.30% # Type of FU issued
system.cpu0.iq.FU_type_0::FloatAdd                  0      0.00%     40.30% # Type of FU issued
system.cpu0.iq.FU_type_0::FloatCmp                  0      0.00%     40.30% # Type of FU issued
system.cpu0.iq.FU_type_0::FloatCvt                  0      0.00%     40.30% # Type of FU issued
system.cpu0.iq.FU_type_0::FloatMult                 0      0.00%     40.30% # Type of FU issued
system.cpu0.iq.FU_type_0::FloatDiv                  0      0.00%     40.30% # Type of FU issued
system.cpu0.iq.FU_type_0::FloatSqrt                 0      0.00%     40.30% # Type of FU issued
system.cpu0.iq.FU_type_0::SimdAdd                   0      0.00%     40.30% # Type of FU issued
system.cpu0.iq.FU_type_0::SimdAddAcc                0      0.00%     40.30% # Type of FU issued
system.cpu0.iq.FU_type_0::SimdAlu                   0      0.00%     40.30% # Type of FU issued
system.cpu0.iq.FU_type_0::SimdCmp                   0      0.00%     40.30% # Type of FU issued
system.cpu0.iq.FU_type_0::SimdCvt                   0      0.00%     40.30% # Type of FU issued
system.cpu0.iq.FU_type_0::SimdMisc                  0      0.00%     40.30% # Type of FU issued
system.cpu0.iq.FU_type_0::SimdMult                  0      0.00%     40.30% # Type of FU issued
system.cpu0.iq.FU_type_0::SimdMultAcc               0      0.00%     40.30% # Type of FU issued
system.cpu0.iq.FU_type_0::SimdShift                 0      0.00%     40.30% # Type of FU issued
system.cpu0.iq.FU_type_0::SimdShiftAcc              0      0.00%     40.30% # Type of FU issued
system.cpu0.iq.FU_type_0::SimdSqrt                  0      0.00%     40.30% # Type of FU issued
system.cpu0.iq.FU_type_0::SimdFloatAdd              0      0.00%     40.30% # Type of FU issued
system.cpu0.iq.FU_type_0::SimdFloatAlu              0      0.00%     40.30% # Type of FU issued
system.cpu0.iq.FU_type_0::SimdFloatCmp              0      0.00%     40.30% # Type of FU issued
system.cpu0.iq.FU_type_0::SimdFloatCvt              0      0.00%     40.30% # Type of FU issued
system.cpu0.iq.FU_type_0::SimdFloatDiv              0      0.00%     40.30% # Type of FU issued
system.cpu0.iq.FU_type_0::SimdFloatMisc             3      0.00%     40.30% # Type of FU issued
system.cpu0.iq.FU_type_0::SimdFloatMult             0      0.00%     40.30% # Type of FU issued
system.cpu0.iq.FU_type_0::SimdFloatMultAcc            0      0.00%     40.30% # Type of FU issued
system.cpu0.iq.FU_type_0::SimdFloatSqrt             0      0.00%     40.30% # Type of FU issued
system.cpu0.iq.FU_type_0::MemRead             2380485     39.76%     80.06% # Type of FU issued
system.cpu0.iq.FU_type_0::MemWrite            1193829     19.94%    100.00% # Type of FU issued
system.cpu0.iq.FU_type_0::IprAccess                 0      0.00%    100.00% # Type of FU issued
system.cpu0.iq.FU_type_0::InstPrefetch              0      0.00%    100.00% # Type of FU issued
system.cpu0.iq.FU_type_0::total               5986731                       # Type of FU issued
system.cpu0.iq.rate                          2.472319                       # Inst issue rate
system.cpu0.iq.fu_busy_cnt                          0                       # FU busy when requested
system.cpu0.iq.fu_busy_rate                         0                       # FU busy rate (busy events/executed inst)
system.cpu0.iq.int_inst_queue_reads          14387845                       # Number of integer instruction queue reads
system.cpu0.iq.int_inst_queue_writes          5993786                       # Number of integer instruction queue writes
system.cpu0.iq.int_inst_queue_wakeup_accesses      5985480                       # Number of integer instruction queue wakeup accesses
system.cpu0.iq.fp_inst_queue_reads                 32                       # Number of floating instruction queue reads
system.cpu0.iq.fp_inst_queue_writes                16                       # Number of floating instruction queue writes
system.cpu0.iq.fp_inst_queue_wakeup_accesses           16                       # Number of floating instruction queue wakeup accesses
system.cpu0.iq.int_alu_accesses               5986715                       # Number of integer alu accesses
system.cpu0.iq.fp_alu_accesses                     16                       # Number of floating point alu accesses
system.cpu0.iew.lsq.thread0.forwLoads         1187910                       # Number of loads that had data forwarded from stores
system.cpu0.iew.lsq.thread0.invAddrLoads            0                       # Number of loads ignored due to an invalid address
system.cpu0.iew.lsq.thread0.squashedLoads         1311                       # Number of loads squashed
system.cpu0.iew.lsq.thread0.ignoredResponses            1                       # Number of memory responses ignored because the instruction is squashed
system.cpu0.iew.lsq.thread0.memOrderViolation           16                       # Number of memory ordering violations
system.cpu0.iew.lsq.thread0.squashedStores          516                       # Number of stores squashed
system.cpu0.iew.lsq.thread0.invAddrSwpfs            0                       # Number of software prefetches ignored due to an invalid address
system.cpu0.iew.lsq.thread0.blockedLoads            0                       # Number of blocked loads due to partial load-store forwarding
system.cpu0.iew.lsq.thread0.rescheduledLoads            1                       # Number of loads that were rescheduled
system.cpu0.iew.lsq.thread0.cacheBlocked            9                       # Number of times an access to memory failed due to the cache being blocked
system.cpu0.iew.iewIdleCycles                       0                       # Number of cycles IEW is idle
system.cpu0.iew.iewSquashCycles                   606                       # Number of cycles IEW is squashing
system.cpu0.iew.iewBlockCycles                    401                       # Number of cycles IEW is blocking
system.cpu0.iew.iewUnblockCycles                  115                       # Number of cycles IEW is unblocking
system.cpu0.iew.iewDispatchedInsts            5988546                       # Number of instructions dispatched to IQ
system.cpu0.iew.iewDispSquashedInsts              437                       # Number of squashed instructions skipped by dispatch
system.cpu0.iew.iewDispLoadInsts              2380698                       # Number of dispatched load instructions
system.cpu0.iew.iewDispStoreInsts             1194046                       # Number of dispatched store instructions
system.cpu0.iew.iewDispNonSpecInsts                59                       # Number of dispatched non-speculative instructions
system.cpu0.iew.iewIQFullEvents                     2                       # Number of times the IQ has become full, causing a stall
system.cpu0.iew.iewLSQFullEvents                    0                       # Number of times the LSQ has become full, causing a stall
system.cpu0.iew.memOrderViolationEvents            16                       # Number of memory order violations
system.cpu0.iew.predictedTakenIncorrect            80                       # Number of branches that were predicted taken incorrectly
system.cpu0.iew.predictedNotTakenIncorrect          525                       # Number of branches that were predicted not taken incorrectly
system.cpu0.iew.branchMispredicts                 605                       # Number of branch mispredicts detected at execute
system.cpu0.iew.iewExecutedInsts              5986028                       # Number of executed instructions
system.cpu0.iew.iewExecLoadInsts              2380257                       # Number of load instructions executed
system.cpu0.iew.iewExecSquashedInsts              701                       # Number of squashed instructions skipped in execute
system.cpu0.iew.exec_swp                            0                       # number of swp insts executed
system.cpu0.iew.exec_nop                           20                       # number of nop insts executed
system.cpu0.iew.exec_refs                     3573973                       # number of memory reference insts executed
system.cpu0.iew.exec_branches                 1198132                       # Number of branches executed
system.cpu0.iew.exec_stores                   1193716                       # Number of stores executed
system.cpu0.iew.exec_rate                    2.472029                       # Inst execution rate
system.cpu0.iew.wb_sent                       5985596                       # cumulative count of insts sent to commit
system.cpu0.iew.wb_count                      5985496                       # cumulative count of insts written-back
system.cpu0.iew.wb_producers                  3586695                       # num instructions producing a value
system.cpu0.iew.wb_consumers                  3598151                       # num instructions consuming a value
system.cpu0.iew.wb_penalized                        0                       # number of instrctions required to write to 'other' IQ
system.cpu0.iew.wb_rate                      2.471809                       # insts written-back per cycle
system.cpu0.iew.wb_fanout                    0.996816                       # average fanout of values written-back
system.cpu0.iew.wb_penalized_rate                   0                       # fraction of instructions written-back that wrote to 'other' IQ
system.cpu0.commit.commitSquashedInsts           5280                       # The number of squashed insts skipped by commit
system.cpu0.commit.commitNonSpecStalls             80                       # The number of times commit has been forced to stall to communicate backwards
system.cpu0.commit.branchMispredicts              568                       # The number of times a branch was mispredicted
system.cpu0.commit.committed_per_cycle::samples      2413293                       # Number of insts commited each cycle
system.cpu0.commit.committed_per_cycle::mean     2.479287                       # Number of insts commited each cycle
system.cpu0.commit.committed_per_cycle::stdev     1.586918                       # Number of insts commited each cycle
system.cpu0.commit.committed_per_cycle::underflows            0      0.00%      0.00% # Number of insts commited each cycle
system.cpu0.commit.committed_per_cycle::0        17190      0.71%      0.71% # Number of insts commited each cycle
system.cpu0.commit.committed_per_cycle::1      1196419     49.58%     50.29% # Number of insts commited each cycle
system.cpu0.commit.committed_per_cycle::2         3389      0.14%     50.43% # Number of insts commited each cycle
system.cpu0.commit.committed_per_cycle::3       302826     12.55%     62.98% # Number of insts commited each cycle
system.cpu0.commit.committed_per_cycle::4       596183     24.70%     87.68% # Number of insts commited each cycle
system.cpu0.commit.committed_per_cycle::5       297091     12.31%     99.99% # Number of insts commited each cycle
system.cpu0.commit.committed_per_cycle::6           75      0.00%    100.00% # Number of insts commited each cycle
system.cpu0.commit.committed_per_cycle::7           26      0.00%    100.00% # Number of insts commited each cycle
system.cpu0.commit.committed_per_cycle::8           94      0.00%    100.00% # Number of insts commited each cycle
system.cpu0.commit.committed_per_cycle::overflows            0      0.00%    100.00% # Number of insts commited each cycle
system.cpu0.commit.committed_per_cycle::min_value            0                       # Number of insts commited each cycle
system.cpu0.commit.committed_per_cycle::max_value            8                       # Number of insts commited each cycle
system.cpu0.commit.committed_per_cycle::total      2413293                       # Number of insts commited each cycle
system.cpu0.commit.committedInsts             5979811                       # Number of instructions committed
system.cpu0.commit.committedOps               5983246                       # Number of ops (including micro ops) committed
system.cpu0.commit.swp_count                        0                       # Number of s/w prefetches committed
system.cpu0.commit.refs                       3572905                       # Number of memory references committed
system.cpu0.commit.loads                      2379379                       # Number of loads committed
system.cpu0.commit.membars                         28                       # Number of memory barriers committed
system.cpu0.commit.branches                   1197772                       # Number of branches committed
system.cpu0.commit.fp_insts                        16                       # Number of committed floating point instructions.
system.cpu0.commit.int_insts                  4789967                       # Number of committed integer instructions.
system.cpu0.commit.function_calls                2204                       # Number of function calls committed.
system.cpu0.commit.op_class_0::No_OpClass            0      0.00%      0.00% # Class of committed instruction
system.cpu0.commit.op_class_0::IntAlu         2410332     40.28%     40.28% # Class of committed instruction
system.cpu0.commit.op_class_0::IntMult              6      0.00%     40.28% # Class of committed instruction
system.cpu0.commit.op_class_0::IntDiv               0      0.00%     40.28% # Class of committed instruction
system.cpu0.commit.op_class_0::FloatAdd             0      0.00%     40.28% # Class of committed instruction
system.cpu0.commit.op_class_0::FloatCmp             0      0.00%     40.28% # Class of committed instruction
system.cpu0.commit.op_class_0::FloatCvt             0      0.00%     40.28% # Class of committed instruction
system.cpu0.commit.op_class_0::FloatMult            0      0.00%     40.28% # Class of committed instruction
system.cpu0.commit.op_class_0::FloatDiv             0      0.00%     40.28% # Class of committed instruction
system.cpu0.commit.op_class_0::FloatSqrt            0      0.00%     40.28% # Class of committed instruction
system.cpu0.commit.op_class_0::SimdAdd              0      0.00%     40.28% # Class of committed instruction
system.cpu0.commit.op_class_0::SimdAddAcc            0      0.00%     40.28% # Class of committed instruction
system.cpu0.commit.op_class_0::SimdAlu              0      0.00%     40.28% # Class of committed instruction
system.cpu0.commit.op_class_0::SimdCmp              0      0.00%     40.28% # Class of committed instruction
system.cpu0.commit.op_class_0::SimdCvt              0      0.00%     40.28% # Class of committed instruction
system.cpu0.commit.op_class_0::SimdMisc             0      0.00%     40.28% # Class of committed instruction
system.cpu0.commit.op_class_0::SimdMult             0      0.00%     40.28% # Class of committed instruction
system.cpu0.commit.op_class_0::SimdMultAcc            0      0.00%     40.28% # Class of committed instruction
system.cpu0.commit.op_class_0::SimdShift            0      0.00%     40.28% # Class of committed instruction
system.cpu0.commit.op_class_0::SimdShiftAcc            0      0.00%     40.28% # Class of committed instruction
system.cpu0.commit.op_class_0::SimdSqrt             0      0.00%     40.28% # Class of committed instruction
system.cpu0.commit.op_class_0::SimdFloatAdd            0      0.00%     40.28% # Class of committed instruction
system.cpu0.commit.op_class_0::SimdFloatAlu            0      0.00%     40.28% # Class of committed instruction
system.cpu0.commit.op_class_0::SimdFloatCmp            0      0.00%     40.28% # Class of committed instruction
system.cpu0.commit.op_class_0::SimdFloatCvt            0      0.00%     40.28% # Class of committed instruction
system.cpu0.commit.op_class_0::SimdFloatDiv            0      0.00%     40.28% # Class of committed instruction
system.cpu0.commit.op_class_0::SimdFloatMisc            3      0.00%     40.28% # Class of committed instruction
system.cpu0.commit.op_class_0::SimdFloatMult            0      0.00%     40.28% # Class of committed instruction
system.cpu0.commit.op_class_0::SimdFloatMultAcc            0      0.00%     40.28% # Class of committed instruction
system.cpu0.commit.op_class_0::SimdFloatSqrt            0      0.00%     40.28% # Class of committed instruction
system.cpu0.commit.op_class_0::MemRead        2379379     39.77%     80.05% # Class of committed instruction
system.cpu0.commit.op_class_0::MemWrite       1193526     19.95%    100.00% # Class of committed instruction
system.cpu0.commit.op_class_0::IprAccess            0      0.00%    100.00% # Class of committed instruction
system.cpu0.commit.op_class_0::InstPrefetch            0      0.00%    100.00% # Class of committed instruction
system.cpu0.commit.op_class_0::total          5983246                       # Class of committed instruction
system.cpu0.commit.bw_lim_events                   94                       # number cycles where commit BW limit reached
system.cpu0.rob.rob_reads                     8401412                       # The number of ROB reads
system.cpu0.rob.rob_writes                   11978061                       # The number of ROB writes
system.cpu0.timesIdled                            229                       # Number of times that the entire CPU went into an idle state and unscheduled itself
system.cpu0.idleCycles                           7229                       # Total number of cycles that the CPU has spent unscheduled due to idling
system.cpu0.committedInsts                    5979811                       # Number of Instructions Simulated
system.cpu0.committedOps                      5983246                       # Number of Ops (including micro ops) Simulated
system.cpu0.cpi                              0.404947                       # CPI: Cycles Per Instruction
system.cpu0.cpi_total                        0.404947                       # CPI: Total CPI of All Threads
system.cpu0.ipc                              2.469462                       # IPC: Instructions Per Cycle
system.cpu0.ipc_total                        2.469462                       # IPC: Total IPC of All Threads
system.cpu0.int_regfile_reads                 5984957                       # number of integer regfile reads
system.cpu0.int_regfile_writes                2403045                       # number of integer regfile writes
system.cpu0.fp_regfile_reads                     1296                       # number of floating regfile reads
system.cpu0.cc_regfile_reads                 25097236                       # number of cc regfile reads
system.cpu0.cc_regfile_writes                 3583575                       # number of cc regfile writes
system.cpu0.misc_regfile_reads                3642364                       # number of misc regfile reads
system.cpu0.misc_regfile_writes                    58                       # number of misc regfile writes
system.cpu0.dcache.tags.replacements              606                       # number of replacements
system.cpu0.dcache.tags.tagsinuse          241.746943                       # Cycle average of tags in use
system.cpu0.dcache.tags.total_refs            2379656                       # Total number of references to valid blocks.
system.cpu0.dcache.tags.sampled_refs              793                       # Sample count of references to valid blocks.
system.cpu0.dcache.tags.avg_refs          3000.827238                       # Average number of references to valid blocks.
system.cpu0.dcache.tags.warmup_cycle         26875000                       # Cycle when the warmup percentage was hit.
system.cpu0.dcache.tags.occ_blocks::cpu0.data   241.746943                       # Average occupied blocks per requestor
system.cpu0.dcache.tags.occ_percent::cpu0.data     0.472162                       # Average percentage of cache occupancy
system.cpu0.dcache.tags.occ_percent::total     0.472162                       # Average percentage of cache occupancy
system.cpu0.dcache.tags.occ_task_id_blocks::1024          187                       # Occupied blocks per task id
system.cpu0.dcache.tags.age_task_id_blocks_1024::3          187                       # Occupied blocks per task id
system.cpu0.dcache.tags.occ_task_id_percent::1024     0.365234                       # Percentage of cache occupancy per task id
system.cpu0.dcache.tags.tag_accesses          4772421                       # Number of tag accesses
system.cpu0.dcache.tags.data_accesses         4772421                       # Number of data accesses
system.cpu0.dcache.ReadReq_hits::cpu0.data      1191924                       # number of ReadReq hits
system.cpu0.dcache.ReadReq_hits::total        1191924                       # number of ReadReq hits
system.cpu0.dcache.WriteReq_hits::cpu0.data      1188977                       # number of WriteReq hits
system.cpu0.dcache.WriteReq_hits::total       1188977                       # number of WriteReq hits
system.cpu0.dcache.LoadLockedReq_hits::cpu0.data           25                       # number of LoadLockedReq hits
system.cpu0.dcache.LoadLockedReq_hits::total           25                       # number of LoadLockedReq hits
system.cpu0.dcache.StoreCondReq_hits::cpu0.data           27                       # number of StoreCondReq hits
system.cpu0.dcache.StoreCondReq_hits::total           27                       # number of StoreCondReq hits
system.cpu0.dcache.demand_hits::cpu0.data      2380901                       # number of demand (read+write) hits
system.cpu0.dcache.demand_hits::total         2380901                       # number of demand (read+write) hits
system.cpu0.dcache.overall_hits::cpu0.data      2380901                       # number of overall hits
system.cpu0.dcache.overall_hits::total        2380901                       # number of overall hits
system.cpu0.dcache.ReadReq_misses::cpu0.data          212                       # number of ReadReq misses
system.cpu0.dcache.ReadReq_misses::total          212                       # number of ReadReq misses
system.cpu0.dcache.WriteReq_misses::cpu0.data         4478                       # number of WriteReq misses
system.cpu0.dcache.WriteReq_misses::total         4478                       # number of WriteReq misses
system.cpu0.dcache.LoadLockedReq_misses::cpu0.data            5                       # number of LoadLockedReq misses
system.cpu0.dcache.LoadLockedReq_misses::total            5                       # number of LoadLockedReq misses
system.cpu0.dcache.demand_misses::cpu0.data         4690                       # number of demand (read+write) misses
system.cpu0.dcache.demand_misses::total          4690                       # number of demand (read+write) misses
system.cpu0.dcache.overall_misses::cpu0.data         4690                       # number of overall misses
system.cpu0.dcache.overall_misses::total         4690                       # number of overall misses
system.cpu0.dcache.ReadReq_miss_latency::cpu0.data      8585487                       # number of ReadReq miss cycles
system.cpu0.dcache.ReadReq_miss_latency::total      8585487                       # number of ReadReq miss cycles
system.cpu0.dcache.WriteReq_miss_latency::cpu0.data    224246999                       # number of WriteReq miss cycles
system.cpu0.dcache.WriteReq_miss_latency::total    224246999                       # number of WriteReq miss cycles
system.cpu0.dcache.LoadLockedReq_miss_latency::cpu0.data       171500                       # number of LoadLockedReq miss cycles
system.cpu0.dcache.LoadLockedReq_miss_latency::total       171500                       # number of LoadLockedReq miss cycles
system.cpu0.dcache.demand_miss_latency::cpu0.data    232832486                       # number of demand (read+write) miss cycles
system.cpu0.dcache.demand_miss_latency::total    232832486                       # number of demand (read+write) miss cycles
system.cpu0.dcache.overall_miss_latency::cpu0.data    232832486                       # number of overall miss cycles
system.cpu0.dcache.overall_miss_latency::total    232832486                       # number of overall miss cycles
system.cpu0.dcache.ReadReq_accesses::cpu0.data      1192136                       # number of ReadReq accesses(hits+misses)
system.cpu0.dcache.ReadReq_accesses::total      1192136                       # number of ReadReq accesses(hits+misses)
system.cpu0.dcache.WriteReq_accesses::cpu0.data      1193455                       # number of WriteReq accesses(hits+misses)
system.cpu0.dcache.WriteReq_accesses::total      1193455                       # number of WriteReq accesses(hits+misses)
system.cpu0.dcache.LoadLockedReq_accesses::cpu0.data           30                       # number of LoadLockedReq accesses(hits+misses)
system.cpu0.dcache.LoadLockedReq_accesses::total           30                       # number of LoadLockedReq accesses(hits+misses)
system.cpu0.dcache.StoreCondReq_accesses::cpu0.data           27                       # number of StoreCondReq accesses(hits+misses)
system.cpu0.dcache.StoreCondReq_accesses::total           27                       # number of StoreCondReq accesses(hits+misses)
system.cpu0.dcache.demand_accesses::cpu0.data      2385591                       # number of demand (read+write) accesses
system.cpu0.dcache.demand_accesses::total      2385591                       # number of demand (read+write) accesses
system.cpu0.dcache.overall_accesses::cpu0.data      2385591                       # number of overall (read+write) accesses
system.cpu0.dcache.overall_accesses::total      2385591                       # number of overall (read+write) accesses
system.cpu0.dcache.ReadReq_miss_rate::cpu0.data     0.000178                       # miss rate for ReadReq accesses
system.cpu0.dcache.ReadReq_miss_rate::total     0.000178                       # miss rate for ReadReq accesses
system.cpu0.dcache.WriteReq_miss_rate::cpu0.data     0.003752                       # miss rate for WriteReq accesses
system.cpu0.dcache.WriteReq_miss_rate::total     0.003752                       # miss rate for WriteReq accesses
system.cpu0.dcache.LoadLockedReq_miss_rate::cpu0.data     0.166667                       # miss rate for LoadLockedReq accesses
system.cpu0.dcache.LoadLockedReq_miss_rate::total     0.166667                       # miss rate for LoadLockedReq accesses
system.cpu0.dcache.demand_miss_rate::cpu0.data     0.001966                       # miss rate for demand accesses
system.cpu0.dcache.demand_miss_rate::total     0.001966                       # miss rate for demand accesses
system.cpu0.dcache.overall_miss_rate::cpu0.data     0.001966                       # miss rate for overall accesses
system.cpu0.dcache.overall_miss_rate::total     0.001966                       # miss rate for overall accesses
system.cpu0.dcache.ReadReq_avg_miss_latency::cpu0.data 40497.580189                       # average ReadReq miss latency
system.cpu0.dcache.ReadReq_avg_miss_latency::total 40497.580189                       # average ReadReq miss latency
system.cpu0.dcache.WriteReq_avg_miss_latency::cpu0.data 50077.489728                       # average WriteReq miss latency
system.cpu0.dcache.WriteReq_avg_miss_latency::total 50077.489728                       # average WriteReq miss latency
system.cpu0.dcache.LoadLockedReq_avg_miss_latency::cpu0.data        34300                       # average LoadLockedReq miss latency
system.cpu0.dcache.LoadLockedReq_avg_miss_latency::total        34300                       # average LoadLockedReq miss latency
system.cpu0.dcache.demand_avg_miss_latency::cpu0.data 49644.453305                       # average overall miss latency
system.cpu0.dcache.demand_avg_miss_latency::total 49644.453305                       # average overall miss latency
system.cpu0.dcache.overall_avg_miss_latency::cpu0.data 49644.453305                       # average overall miss latency
system.cpu0.dcache.overall_avg_miss_latency::total 49644.453305                       # average overall miss latency
system.cpu0.dcache.blocked_cycles::no_mshrs           72                       # number of cycles access was blocked
system.cpu0.dcache.blocked_cycles::no_targets            0                       # number of cycles access was blocked
system.cpu0.dcache.blocked::no_mshrs                7                       # number of cycles access was blocked
system.cpu0.dcache.blocked::no_targets              0                       # number of cycles access was blocked
system.cpu0.dcache.avg_blocked_cycles::no_mshrs    10.285714                       # average number of cycles each access was blocked
system.cpu0.dcache.avg_blocked_cycles::no_targets          nan                       # average number of cycles each access was blocked
system.cpu0.dcache.fast_writes                      0                       # number of fast writes performed
system.cpu0.dcache.cache_copies                     0                       # number of cache copies performed
system.cpu0.dcache.writebacks::writebacks          528                       # number of writebacks
system.cpu0.dcache.writebacks::total              528                       # number of writebacks
system.cpu0.dcache.ReadReq_mshr_hits::cpu0.data           58                       # number of ReadReq MSHR hits
system.cpu0.dcache.ReadReq_mshr_hits::total           58                       # number of ReadReq MSHR hits
system.cpu0.dcache.WriteReq_mshr_hits::cpu0.data         3506                       # number of WriteReq MSHR hits
system.cpu0.dcache.WriteReq_mshr_hits::total         3506                       # number of WriteReq MSHR hits
system.cpu0.dcache.LoadLockedReq_mshr_hits::cpu0.data            5                       # number of LoadLockedReq MSHR hits
system.cpu0.dcache.LoadLockedReq_mshr_hits::total            5                       # number of LoadLockedReq MSHR hits
system.cpu0.dcache.demand_mshr_hits::cpu0.data         3564                       # number of demand (read+write) MSHR hits
system.cpu0.dcache.demand_mshr_hits::total         3564                       # number of demand (read+write) MSHR hits
system.cpu0.dcache.overall_mshr_hits::cpu0.data         3564                       # number of overall MSHR hits
system.cpu0.dcache.overall_mshr_hits::total         3564                       # number of overall MSHR hits
system.cpu0.dcache.ReadReq_mshr_misses::cpu0.data          154                       # number of ReadReq MSHR misses
system.cpu0.dcache.ReadReq_mshr_misses::total          154                       # number of ReadReq MSHR misses
system.cpu0.dcache.WriteReq_mshr_misses::cpu0.data          972                       # number of WriteReq MSHR misses
system.cpu0.dcache.WriteReq_mshr_misses::total          972                       # number of WriteReq MSHR misses
system.cpu0.dcache.demand_mshr_misses::cpu0.data         1126                       # number of demand (read+write) MSHR misses
system.cpu0.dcache.demand_mshr_misses::total         1126                       # number of demand (read+write) MSHR misses
system.cpu0.dcache.overall_mshr_misses::cpu0.data         1126                       # number of overall MSHR misses
system.cpu0.dcache.overall_mshr_misses::total         1126                       # number of overall MSHR misses
system.cpu0.dcache.ReadReq_mshr_miss_latency::cpu0.data      6078509                       # number of ReadReq MSHR miss cycles
system.cpu0.dcache.ReadReq_mshr_miss_latency::total      6078509                       # number of ReadReq MSHR miss cycles
system.cpu0.dcache.WriteReq_mshr_miss_latency::cpu0.data     53229500                       # number of WriteReq MSHR miss cycles
system.cpu0.dcache.WriteReq_mshr_miss_latency::total     53229500                       # number of WriteReq MSHR miss cycles
system.cpu0.dcache.demand_mshr_miss_latency::cpu0.data     59308009                       # number of demand (read+write) MSHR miss cycles
system.cpu0.dcache.demand_mshr_miss_latency::total     59308009                       # number of demand (read+write) MSHR miss cycles
system.cpu0.dcache.overall_mshr_miss_latency::cpu0.data     59308009                       # number of overall MSHR miss cycles
system.cpu0.dcache.overall_mshr_miss_latency::total     59308009                       # number of overall MSHR miss cycles
system.cpu0.dcache.ReadReq_mshr_miss_rate::cpu0.data     0.000129                       # mshr miss rate for ReadReq accesses
system.cpu0.dcache.ReadReq_mshr_miss_rate::total     0.000129                       # mshr miss rate for ReadReq accesses
system.cpu0.dcache.WriteReq_mshr_miss_rate::cpu0.data     0.000814                       # mshr miss rate for WriteReq accesses
system.cpu0.dcache.WriteReq_mshr_miss_rate::total     0.000814                       # mshr miss rate for WriteReq accesses
system.cpu0.dcache.demand_mshr_miss_rate::cpu0.data     0.000472                       # mshr miss rate for demand accesses
system.cpu0.dcache.demand_mshr_miss_rate::total     0.000472                       # mshr miss rate for demand accesses
system.cpu0.dcache.overall_mshr_miss_rate::cpu0.data     0.000472                       # mshr miss rate for overall accesses
system.cpu0.dcache.overall_mshr_miss_rate::total     0.000472                       # mshr miss rate for overall accesses
system.cpu0.dcache.ReadReq_avg_mshr_miss_latency::cpu0.data 39470.837662                       # average ReadReq mshr miss latency
system.cpu0.dcache.ReadReq_avg_mshr_miss_latency::total 39470.837662                       # average ReadReq mshr miss latency
system.cpu0.dcache.WriteReq_avg_mshr_miss_latency::cpu0.data 54762.860082                       # average WriteReq mshr miss latency
system.cpu0.dcache.WriteReq_avg_mshr_miss_latency::total 54762.860082                       # average WriteReq mshr miss latency
system.cpu0.dcache.demand_avg_mshr_miss_latency::cpu0.data 52671.411190                       # average overall mshr miss latency
system.cpu0.dcache.demand_avg_mshr_miss_latency::total 52671.411190                       # average overall mshr miss latency
system.cpu0.dcache.overall_avg_mshr_miss_latency::cpu0.data 52671.411190                       # average overall mshr miss latency
system.cpu0.dcache.overall_avg_mshr_miss_latency::total 52671.411190                       # average overall mshr miss latency
system.cpu0.dcache.no_allocate_misses               0                       # Number of misses that were no-allocate
system.cpu0.icache.tags.replacements               58                       # number of replacements
system.cpu0.icache.tags.tagsinuse          293.859276                       # Cycle average of tags in use
system.cpu0.icache.tags.total_refs               6678                       # Total number of references to valid blocks.
system.cpu0.icache.tags.sampled_refs              354                       # Sample count of references to valid blocks.
system.cpu0.icache.tags.avg_refs            18.864407                       # Average number of references to valid blocks.
system.cpu0.icache.tags.warmup_cycle                0                       # Cycle when the warmup percentage was hit.
system.cpu0.icache.tags.occ_blocks::cpu0.inst   293.859276                       # Average occupied blocks per requestor
system.cpu0.icache.tags.occ_percent::cpu0.inst     0.573944                       # Average percentage of cache occupancy
system.cpu0.icache.tags.occ_percent::total     0.573944                       # Average percentage of cache occupancy
system.cpu0.icache.tags.occ_task_id_blocks::1024          296                       # Occupied blocks per task id
system.cpu0.icache.tags.age_task_id_blocks_1024::3          296                       # Occupied blocks per task id
system.cpu0.icache.tags.occ_task_id_percent::1024     0.578125                       # Percentage of cache occupancy per task id
system.cpu0.icache.tags.tag_accesses            14556                       # Number of tag accesses
system.cpu0.icache.tags.data_accesses           14556                       # Number of data accesses
system.cpu0.icache.ReadReq_hits::cpu0.inst         6678                       # number of ReadReq hits
system.cpu0.icache.ReadReq_hits::total           6678                       # number of ReadReq hits
system.cpu0.icache.demand_hits::cpu0.inst         6678                       # number of demand (read+write) hits
system.cpu0.icache.demand_hits::total            6678                       # number of demand (read+write) hits
system.cpu0.icache.overall_hits::cpu0.inst         6678                       # number of overall hits
system.cpu0.icache.overall_hits::total           6678                       # number of overall hits
system.cpu0.icache.ReadReq_misses::cpu0.inst          423                       # number of ReadReq misses
system.cpu0.icache.ReadReq_misses::total          423                       # number of ReadReq misses
system.cpu0.icache.demand_misses::cpu0.inst          423                       # number of demand (read+write) misses
[...]
system.l2.demand_avg_mshr_miss_latency::cpu8.data 41067.226891                       # average overall mshr miss latency
system.l2.demand_avg_mshr_miss_latency::total 41239.406780                       # average overall mshr miss latency
system.l2.overall_avg_mshr_miss_latency::cpu0.inst 41085.106383                       # average overall mshr miss latency
system.l2.overall_avg_mshr_miss_latency::cpu0.data 40718.571429                       # average overall mshr miss latency
system.l2.overall_avg_mshr_miss_latency::cpu1.inst 40891.304348                       # average overall mshr miss latency
system.l2.overall_avg_mshr_miss_latency::cpu1.data 43433.333333                       # average overall mshr miss latency
system.l2.overall_avg_mshr_miss_latency::cpu2.inst 40892.857143                       # average overall mshr miss latency
system.l2.overall_avg_mshr_miss_latency::cpu2.data 43299.401198                       # average overall mshr miss latency
system.l2.overall_avg_mshr_miss_latency::cpu3.inst 40542.857143                       # average overall mshr miss latency
system.l2.overall_avg_mshr_miss_latency::cpu3.data 41781.818182                       # average overall mshr miss latency
system.l2.overall_avg_mshr_miss_latency::cpu4.inst 40983.146067                       # average overall mshr miss latency
system.l2.overall_avg_mshr_miss_latency::cpu4.data 41159.836066                       # average overall mshr miss latency
system.l2.overall_avg_mshr_miss_latency::cpu5.inst 41461.538462                       # average overall mshr miss latency
system.l2.overall_avg_mshr_miss_latency::cpu5.data 41265.086207                       # average overall mshr miss latency
system.l2.overall_avg_mshr_miss_latency::cpu6.inst 40777.777778                       # average overall mshr miss latency
system.l2.overall_avg_mshr_miss_latency::cpu6.data 41495.934959                       # average overall mshr miss latency
system.l2.overall_avg_mshr_miss_latency::cpu7.inst 41612.903226                       # average overall mshr miss latency
system.l2.overall_avg_mshr_miss_latency::cpu7.data 41005.181347                       # average overall mshr miss latency
system.l2.overall_avg_mshr_miss_latency::cpu8.inst 40578.571429                       # average overall mshr miss latency
system.l2.overall_avg_mshr_miss_latency::cpu8.data 41067.226891                       # average overall mshr miss latency
system.l2.overall_avg_mshr_miss_latency::total 41239.406780                       # average overall mshr miss latency
system.l2.no_allocate_misses                        0                       # Number of misses that were no-allocate
system.membus.trans_dist::ReadReq                1460                       # Transaction distribution
system.membus.trans_dist::ReadResp               1460                       # Transaction distribution
system.membus.trans_dist::Writeback               187                       # Transaction distribution
system.membus.trans_dist::UpgradeReq            22210                       # Transaction distribution
system.membus.trans_dist::SCUpgradeReq          31377                       # Transaction distribution
system.membus.trans_dist::UpgradeResp           22096                       # Transaction distribution
system.membus.trans_dist::SCUpgradeFailReq           27                       # Transaction distribution
system.membus.trans_dist::ReadExReq              2485                       # Transaction distribution
system.membus.trans_dist::ReadExResp             1844                       # Transaction distribution
system.membus.pkt_count_system.l2.mem_side::system.physmem.port        83146                       # Packet count per connected master and slave (bytes)
system.membus.pkt_count::total                  83146                       # Packet count per connected master and slave (bytes)
system.membus.pkt_size_system.l2.mem_side::system.physmem.port       223424                       # Cumulative packet size per connected master and slave (bytes)
system.membus.pkt_size::total                  223424                       # Cumulative packet size per connected master and slave (bytes)
system.membus.snoops                            32159                       # Total snoops (count)
system.membus.snoop_fanout::samples             58112                       # Request fanout histogram
system.membus.snoop_fanout::mean                    0                       # Request fanout histogram
system.membus.snoop_fanout::stdev                   0                       # Request fanout histogram
system.membus.snoop_fanout::underflows              0      0.00%      0.00% # Request fanout histogram
system.membus.snoop_fanout::0                   58112    100.00%    100.00% # Request fanout histogram
system.membus.snoop_fanout::1                       0      0.00%    100.00% # Request fanout histogram
system.membus.snoop_fanout::overflows               0      0.00%    100.00% # Request fanout histogram
system.membus.snoop_fanout::min_value               0                       # Request fanout histogram
system.membus.snoop_fanout::max_value               0                       # Request fanout histogram
system.membus.snoop_fanout::total               58112                       # Request fanout histogram
system.membus.reqLayer0.occupancy            37909810                       # Layer occupancy (ticks)
system.membus.reqLayer0.utilization               1.6                       # Layer utilization (%)
system.membus.respLayer1.occupancy           49465590                       # Layer occupancy (ticks)
system.membus.respLayer1.utilization              2.0                       # Layer utilization (%)
system.tol2bus.trans_dist::ReadReq             198159                       # Transaction distribution
system.tol2bus.trans_dist::ReadResp            197844                       # Transaction distribution
system.tol2bus.trans_dist::ReadRespWithInvalidate          315                       # Transaction distribution
system.tol2bus.trans_dist::Writeback             2419                       # Transaction distribution
system.tol2bus.trans_dist::UpgradeReq           22227                       # Transaction distribution
system.tol2bus.trans_dist::SCUpgradeReq         31381                       # Transaction distribution
system.tol2bus.trans_dist::UpgradeResp          53608                       # Transaction distribution
system.tol2bus.trans_dist::SCUpgradeFailReq         5197                       # Transaction distribution
system.tol2bus.trans_dist::UpgradeFailResp         5197                       # Transaction distribution
system.tol2bus.trans_dist::ReadExReq            10512                       # Transaction distribution
system.tol2bus.trans_dist::ReadExResp           10512                       # Transaction distribution
system.tol2bus.pkt_count_system.cpu0.icache.mem_side::system.l2.cpu_side          708                       # Packet count per connected master and slave (bytes)
system.tol2bus.pkt_count_system.cpu0.dcache.mem_side::system.l2.cpu_side         2780                       # Packet count per connected master and slave (bytes)
system.tol2bus.pkt_count_system.cpu1.icache.mem_side::system.l2.cpu_side         2358                       # Packet count per connected master and slave (bytes)
system.tol2bus.pkt_count_system.cpu1.dcache.mem_side::system.l2.cpu_side        19422                       # Packet count per connected master and slave (bytes)
system.tol2bus.pkt_count_system.cpu2.icache.mem_side::system.l2.cpu_side         2253                       # Packet count per connected master and slave (bytes)
system.tol2bus.pkt_count_system.cpu2.dcache.mem_side::system.l2.cpu_side        28496                       # Packet count per connected master and slave (bytes)
system.tol2bus.pkt_count_system.cpu3.icache.mem_side::system.l2.cpu_side         2405                       # Packet count per connected master and slave (bytes)
system.tol2bus.pkt_count_system.cpu3.dcache.mem_side::system.l2.cpu_side        35338                       # Packet count per connected master and slave (bytes)
system.tol2bus.pkt_count_system.cpu4.icache.mem_side::system.l2.cpu_side         2323                       # Packet count per connected master and slave (bytes)
system.tol2bus.pkt_count_system.cpu4.dcache.mem_side::system.l2.cpu_side        41137                       # Packet count per connected master and slave (bytes)
system.tol2bus.pkt_count_system.cpu5.icache.mem_side::system.l2.cpu_side         2478                       # Packet count per connected master and slave (bytes)
system.tol2bus.pkt_count_system.cpu5.dcache.mem_side::system.l2.cpu_side        45357                       # Packet count per connected master and slave (bytes)
system.tol2bus.pkt_count_system.cpu6.icache.mem_side::system.l2.cpu_side         2520                       # Packet count per connected master and slave (bytes)
system.tol2bus.pkt_count_system.cpu6.dcache.mem_side::system.l2.cpu_side        45138                       # Packet count per connected master and slave (bytes)
system.tol2bus.pkt_count_system.cpu7.icache.mem_side::system.l2.cpu_side         2588                       # Packet count per connected master and slave (bytes)
system.tol2bus.pkt_count_system.cpu7.dcache.mem_side::system.l2.cpu_side        43979                       # Packet count per connected master and slave (bytes)
system.tol2bus.pkt_count_system.cpu8.icache.mem_side::system.l2.cpu_side         2327                       # Packet count per connected master and slave (bytes)
system.tol2bus.pkt_count_system.cpu8.dcache.mem_side::system.l2.cpu_side        27423                       # Packet count per connected master and slave (bytes)
system.tol2bus.pkt_count::total                309030                       # Packet count per connected master and slave (bytes)
system.tol2bus.pkt_size_system.cpu0.icache.mem_side::system.l2.cpu_side        22656                       # Cumulative packet size per connected master and slave (bytes)
system.tol2bus.pkt_size_system.cpu0.dcache.mem_side::system.l2.cpu_side       105792                       # Cumulative packet size per connected master and slave (bytes)
system.tol2bus.pkt_size_system.cpu1.icache.mem_side::system.l2.cpu_side        75456                       # Cumulative packet size per connected master and slave (bytes)
system.tol2bus.pkt_size_system.cpu1.dcache.mem_side::system.l2.cpu_side        26944                       # Cumulative packet size per connected master and slave (bytes)
system.tol2bus.pkt_size_system.cpu2.icache.mem_side::system.l2.cpu_side        72064                       # Cumulative packet size per connected master and slave (bytes)
system.tol2bus.pkt_size_system.cpu2.dcache.mem_side::system.l2.cpu_side        36032                       # Cumulative packet size per connected master and slave (bytes)
system.tol2bus.pkt_size_system.cpu3.icache.mem_side::system.l2.cpu_side        76928                       # Cumulative packet size per connected master and slave (bytes)
system.tol2bus.pkt_size_system.cpu3.dcache.mem_side::system.l2.cpu_side        44288                       # Cumulative packet size per connected master and slave (bytes)
system.tol2bus.pkt_size_system.cpu4.icache.mem_side::system.l2.cpu_side        74304                       # Cumulative packet size per connected master and slave (bytes)
system.tol2bus.pkt_size_system.cpu4.dcache.mem_side::system.l2.cpu_side        65472                       # Cumulative packet size per connected master and slave (bytes)
system.tol2bus.pkt_size_system.cpu5.icache.mem_side::system.l2.cpu_side        79296                       # Cumulative packet size per connected master and slave (bytes)
system.tol2bus.pkt_size_system.cpu5.dcache.mem_side::system.l2.cpu_side        84672                       # Cumulative packet size per connected master and slave (bytes)
system.tol2bus.pkt_size_system.cpu6.icache.mem_side::system.l2.cpu_side        80640                       # Cumulative packet size per connected master and slave (bytes)
system.tol2bus.pkt_size_system.cpu6.dcache.mem_side::system.l2.cpu_side       115456                       # Cumulative packet size per connected master and slave (bytes)
system.tol2bus.pkt_size_system.cpu7.icache.mem_side::system.l2.cpu_side        82752                       # Cumulative packet size per connected master and slave (bytes)
system.tol2bus.pkt_size_system.cpu7.dcache.mem_side::system.l2.cpu_side        91968                       # Cumulative packet size per connected master and slave (bytes)
system.tol2bus.pkt_size_system.cpu8.icache.mem_side::system.l2.cpu_side        74432                       # Cumulative packet size per connected master and slave (bytes)
system.tol2bus.pkt_size_system.cpu8.dcache.mem_side::system.l2.cpu_side        34816                       # Cumulative packet size per connected master and slave (bytes)
system.tol2bus.pkt_size::total                1243968                       # Cumulative packet size per connected master and slave (bytes)
system.tol2bus.snoops                          228341                       # Total snoops (count)
system.tol2bus.snoop_fanout::samples           269899                       # Request fanout histogram
system.tol2bus.snoop_fanout::mean                  17                       # Request fanout histogram
system.tol2bus.snoop_fanout::stdev                  0                       # Request fanout histogram
system.tol2bus.snoop_fanout::underflows             0      0.00%      0.00% # Request fanout histogram
system.tol2bus.snoop_fanout::0                      0      0.00%      0.00% # Request fanout histogram
system.tol2bus.snoop_fanout::1                      0      0.00%      0.00% # Request fanout histogram
system.tol2bus.snoop_fanout::2                      0      0.00%      0.00% # Request fanout histogram
system.tol2bus.snoop_fanout::3                      0      0.00%      0.00% # Request fanout histogram
system.tol2bus.snoop_fanout::4                      0      0.00%      0.00% # Request fanout histogram
system.tol2bus.snoop_fanout::5                      0      0.00%      0.00% # Request fanout histogram
system.tol2bus.snoop_fanout::6                      0      0.00%      0.00% # Request fanout histogram
system.tol2bus.snoop_fanout::7                      0      0.00%      0.00% # Request fanout histogram
system.tol2bus.snoop_fanout::8                      0      0.00%      0.00% # Request fanout histogram
system.tol2bus.snoop_fanout::9                      0      0.00%      0.00% # Request fanout histogram
system.tol2bus.snoop_fanout::10                     0      0.00%      0.00% # Request fanout histogram
system.tol2bus.snoop_fanout::11                     0      0.00%      0.00% # Request fanout histogram
system.tol2bus.snoop_fanout::12                     0      0.00%      0.00% # Request fanout histogram
system.tol2bus.snoop_fanout::13                     0      0.00%      0.00% # Request fanout histogram
system.tol2bus.snoop_fanout::14                     0      0.00%      0.00% # Request fanout histogram
system.tol2bus.snoop_fanout::15                     0      0.00%      0.00% # Request fanout histogram
system.tol2bus.snoop_fanout::16                     0      0.00%      0.00% # Request fanout histogram
system.tol2bus.snoop_fanout::17                269899    100.00%    100.00% # Request fanout histogram
system.tol2bus.snoop_fanout::18                     0      0.00%    100.00% # Request fanout histogram
system.tol2bus.snoop_fanout::overflows              0      0.00%    100.00% # Request fanout histogram
system.tol2bus.snoop_fanout::min_value             17                       # Request fanout histogram
system.tol2bus.snoop_fanout::max_value             17                       # Request fanout histogram
system.tol2bus.snoop_fanout::total             269899                       # Request fanout histogram
system.tol2bus.reqLayer0.occupancy          139606368                       # Layer occupancy (ticks)
system.tol2bus.reqLayer0.utilization              5.8                       # Layer utilization (%)
system.tol2bus.respLayer0.occupancy            531499                       # Layer occupancy (ticks)
system.tol2bus.respLayer0.utilization             0.0                       # Layer utilization (%)
system.tol2bus.respLayer1.occupancy           1692491                       # Layer occupancy (ticks)
system.tol2bus.respLayer1.utilization             0.1                       # Layer utilization (%)
system.tol2bus.respLayer4.occupancy           1803403                       # Layer occupancy (ticks)
system.tol2bus.respLayer4.utilization             0.1                       # Layer utilization (%)
system.tol2bus.respLayer5.occupancy          26967503                       # Layer occupancy (ticks)
system.tol2bus.respLayer5.utilization             1.1                       # Layer utilization (%)
system.tol2bus.respLayer8.occupancy           1719399                       # Layer occupancy (ticks)
system.tol2bus.respLayer8.utilization             0.1                       # Layer utilization (%)
system.tol2bus.respLayer9.occupancy          38796640                       # Layer occupancy (ticks)
system.tol2bus.respLayer9.utilization             1.6                       # Layer utilization (%)
system.tol2bus.respLayer12.occupancy          1827416                       # Layer occupancy (ticks)
system.tol2bus.respLayer12.utilization            0.1                       # Layer utilization (%)
system.tol2bus.respLayer13.occupancy         47607133                       # Layer occupancy (ticks)
system.tol2bus.respLayer13.utilization            2.0                       # Layer utilization (%)
system.tol2bus.respLayer16.occupancy          1749474                       # Layer occupancy (ticks)
system.tol2bus.respLayer16.utilization            0.1                       # Layer utilization (%)
system.tol2bus.respLayer17.occupancy         52953735                       # Layer occupancy (ticks)
system.tol2bus.respLayer17.utilization            2.2                       # Layer utilization (%)
system.tol2bus.respLayer20.occupancy          1860989                       # Layer occupancy (ticks)
system.tol2bus.respLayer20.utilization            0.1                       # Layer utilization (%)
system.tol2bus.respLayer21.occupancy         56875542                       # Layer occupancy (ticks)
system.tol2bus.respLayer21.utilization            2.3                       # Layer utilization (%)
system.tol2bus.respLayer24.occupancy          1897976                       # Layer occupancy (ticks)
system.tol2bus.respLayer24.utilization            0.1                       # Layer utilization (%)
system.tol2bus.respLayer25.occupancy         56457024                       # Layer occupancy (ticks)
system.tol2bus.respLayer25.utilization            2.3                       # Layer utilization (%)
system.tol2bus.respLayer28.occupancy          1943996                       # Layer occupancy (ticks)
system.tol2bus.respLayer28.utilization            0.1                       # Layer utilization (%)
system.tol2bus.respLayer29.occupancy         54354625                       # Layer occupancy (ticks)
system.tol2bus.respLayer29.utilization            2.2                       # Layer utilization (%)
system.tol2bus.respLayer32.occupancy          1749492                       # Layer occupancy (ticks)
system.tol2bus.respLayer32.utilization            0.1                       # Layer utilization (%)
system.tol2bus.respLayer33.occupancy         35603781                       # Layer occupancy (ticks)
system.tol2bus.respLayer33.utilization            1.5                       # Layer utilization (%)

---------- End Simulation Statistics   ----------
