
---------- Begin Simulation Statistics ----------
sim_seconds                                  0.040027                       # Number of seconds simulated
sim_ticks                                 40026542000                       # Number of ticks simulated
final_tick                                40026542000                       # Number of ticks from beginning of simulation (restored from checkpoints and never reset)
sim_freq                                 1000000000000                       # Frequency of simulated ticks
host_inst_rate                                 117066                       # Simulator instruction rate (inst/s)
host_op_rate                                   118931                       # Simulator op (including micro ops) rate (op/s)
host_tick_rate                               15072443                       # Simulator tick rate (ticks/s)
host_mem_usage                                 886116                       # Number of bytes of host memory used
host_seconds                                  2655.61                       # Real time elapsed on the host
sim_insts                                   310880995                       # Number of instructions simulated
sim_ops                                     315835704                       # Number of ops (including micro ops) simulated
system.voltage_domain.voltage                       1                       # Voltage in Volts
system.clk_domain.clock                          1000                       # Clock period in ticks
system.physmem.bytes_read::cpu00.inst           20608                       # Number of bytes read from this memory
system.physmem.bytes_read::cpu00.data           18944                       # Number of bytes read from this memory
system.physmem.bytes_read::cpu01.inst            3840                       # Number of bytes read from this memory
system.physmem.bytes_read::cpu01.data          157248                       # Number of bytes read from this memory
system.physmem.bytes_read::cpu02.inst            3648                       # Number of bytes read from this memory
system.physmem.bytes_read::cpu02.data          156096                       # Number of bytes read from this memory
system.physmem.bytes_read::cpu03.inst            3904                       # Number of bytes read from this memory
system.physmem.bytes_read::cpu03.data          158144                       # Number of bytes read from this memory
system.physmem.bytes_read::cpu04.inst            1600                       # Number of bytes read from this memory
system.physmem.bytes_read::cpu04.data          165568                       # Number of bytes read from this memory
system.physmem.bytes_read::cpu05.inst            1600                       # Number of bytes read from this memory
system.physmem.bytes_read::cpu05.data          128320                       # Number of bytes read from this memory
system.physmem.bytes_read::cpu06.inst             960                       # Number of bytes read from this memory
system.physmem.bytes_read::cpu06.data          128512                       # Number of bytes read from this memory
system.physmem.bytes_read::cpu07.inst            2432                       # Number of bytes read from this memory
system.physmem.bytes_read::cpu07.data          117760                       # Number of bytes read from this memory
system.physmem.bytes_read::cpu08.inst             192                       # Number of bytes read from this memory
system.physmem.bytes_read::cpu08.data          112192                       # Number of bytes read from this memory
system.physmem.bytes_read::cpu09.inst            1536                       # Number of bytes read from this memory
system.physmem.bytes_read::cpu09.data          122432                       # Number of bytes read from this memory
system.physmem.bytes_read::cpu10.inst            1216                       # Number of bytes read from this memory
system.physmem.bytes_read::cpu10.data          119936                       # Number of bytes read from this memory
system.physmem.bytes_read::cpu11.inst             512                       # Number of bytes read from this memory
system.physmem.bytes_read::cpu11.data          127040                       # Number of bytes read from this memory
system.physmem.bytes_read::cpu12.inst             384                       # Number of bytes read from this memory
system.physmem.bytes_read::cpu12.data          141056                       # Number of bytes read from this memory
system.physmem.bytes_read::cpu13.inst             384                       # Number of bytes read from this memory
system.physmem.bytes_read::cpu13.data          117632                       # Number of bytes read from this memory
system.physmem.bytes_read::cpu14.inst             256                       # Number of bytes read from this memory
system.physmem.bytes_read::cpu14.data          132800                       # Number of bytes read from this memory
system.physmem.bytes_read::cpu15.inst            1216                       # Number of bytes read from this memory
system.physmem.bytes_read::cpu15.data          120768                       # Number of bytes read from this memory
system.physmem.bytes_read::cpu16.inst            1216                       # Number of bytes read from this memory
system.physmem.bytes_read::cpu16.data          118784                       # Number of bytes read from this memory
system.physmem.bytes_read::total              2188736                       # Number of bytes read from this memory
system.physmem.bytes_inst_read::cpu00.inst        20608                       # Number of instructions bytes read from this memory
system.physmem.bytes_inst_read::cpu01.inst         3840                       # Number of instructions bytes read from this memory
system.physmem.bytes_inst_read::cpu02.inst         3648                       # Number of instructions bytes read from this memory
system.physmem.bytes_inst_read::cpu03.inst         3904                       # Number of instructions bytes read from this memory
system.physmem.bytes_inst_read::cpu04.inst         1600                       # Number of instructions bytes read from this memory
system.physmem.bytes_inst_read::cpu05.inst         1600                       # Number of instructions bytes read from this memory
system.physmem.bytes_inst_read::cpu06.inst          960                       # Number of instructions bytes read from this memory
system.physmem.bytes_inst_read::cpu07.inst         2432                       # Number of instructions bytes read from this memory
system.physmem.bytes_inst_read::cpu08.inst          192                       # Number of instructions bytes read from this memory
system.physmem.bytes_inst_read::cpu09.inst         1536                       # Number of instructions bytes read from this memory
system.physmem.bytes_inst_read::cpu10.inst         1216                       # Number of instructions bytes read from this memory
system.physmem.bytes_inst_read::cpu11.inst          512                       # Number of instructions bytes read from this memory
system.physmem.bytes_inst_read::cpu12.inst          384                       # Number of instructions bytes read from this memory
system.physmem.bytes_inst_read::cpu13.inst          384                       # Number of instructions bytes read from this memory
system.physmem.bytes_inst_read::cpu14.inst          256                       # Number of instructions bytes read from this memory
system.physmem.bytes_inst_read::cpu15.inst         1216                       # Number of instructions bytes read from this memory
system.physmem.bytes_inst_read::cpu16.inst         1216                       # Number of instructions bytes read from this memory
system.physmem.bytes_inst_read::total           45504                       # Number of instructions bytes read from this memory
system.physmem.bytes_written::writebacks        51328                       # Number of bytes written to this memory
system.physmem.bytes_written::total             51328                       # Number of bytes written to this memory
system.physmem.num_reads::cpu00.inst              322                       # Number of read requests responded to by this memory
system.physmem.num_reads::cpu00.data              296                       # Number of read requests responded to by this memory
system.physmem.num_reads::cpu01.inst               60                       # Number of read requests responded to by this memory
system.physmem.num_reads::cpu01.data             2457                       # Number of read requests responded to by this memory
system.physmem.num_reads::cpu02.inst               57                       # Number of read requests responded to by this memory
system.physmem.num_reads::cpu02.data             2439                       # Number of read requests responded to by this memory
system.physmem.num_reads::cpu03.inst               61                       # Number of read requests responded to by this memory
system.physmem.num_reads::cpu03.data             2471                       # Number of read requests responded to by this memory
system.physmem.num_reads::cpu04.inst               25                       # Number of read requests responded to by this memory
system.physmem.num_reads::cpu04.data             2587                       # Number of read requests responded to by this memory
system.physmem.num_reads::cpu05.inst               25                       # Number of read requests responded to by this memory
system.physmem.num_reads::cpu05.data             2005                       # Number of read requests responded to by this memory
system.physmem.num_reads::cpu06.inst               15                       # Number of read requests responded to by this memory
system.physmem.num_reads::cpu06.data             2008                       # Number of read requests responded to by this memory
system.physmem.num_reads::cpu07.inst               38                       # Number of read requests responded to by this memory
system.physmem.num_reads::cpu07.data             1840                       # Number of read requests responded to by this memory
system.physmem.num_reads::cpu08.inst                3                       # Number of read requests responded to by this memory
system.physmem.num_reads::cpu08.data             1753                       # Number of read requests responded to by this memory
system.physmem.num_reads::cpu09.inst               24                       # Number of read requests responded to by this memory
system.physmem.num_reads::cpu09.data             1913                       # Number of read requests responded to by this memory
system.physmem.num_reads::cpu10.inst               19                       # Number of read requests responded to by this memory
system.physmem.num_reads::cpu10.data             1874                       # Number of read requests responded to by this memory
system.physmem.num_reads::cpu11.inst                8                       # Number of read requests responded to by this memory
system.physmem.num_reads::cpu11.data             1985                       # Number of read requests responded to by this memory
system.physmem.num_reads::cpu12.inst                6                       # Number of read requests responded to by this memory
system.physmem.num_reads::cpu12.data             2204                       # Number of read requests responded to by this memory
system.physmem.num_reads::cpu13.inst                6                       # Number of read requests responded to by this memory
system.physmem.num_reads::cpu13.data             1838                       # Number of read requests responded to by this memory
system.physmem.num_reads::cpu14.inst                4                       # Number of read requests responded to by this memory
system.physmem.num_reads::cpu14.data             2075                       # Number of read requests responded to by this memory
system.physmem.num_reads::cpu15.inst               19                       # Number of read requests responded to by this memory
system.physmem.num_reads::cpu15.data             1887                       # Number of read requests responded to by this memory
system.physmem.num_reads::cpu16.inst               19                       # Number of read requests responded to by this memory
system.physmem.num_reads::cpu16.data             1856                       # Number of read requests responded to by this memory
system.physmem.num_reads::total                 34199                       # Number of read requests responded to by this memory
system.physmem.num_writes::writebacks             802                       # Number of write requests responded to by this memory
system.physmem.num_writes::total                  802                       # Number of write requests responded to by this memory
system.physmem.bw_read::cpu00.inst             514858                       # Total read bandwidth from this memory (bytes/s)
system.physmem.bw_read::cpu00.data             473286                       # Total read bandwidth from this memory (bytes/s)
system.physmem.bw_read::cpu01.inst              95936                       # Total read bandwidth from this memory (bytes/s)
system.physmem.bw_read::cpu01.data            3928593                       # Total read bandwidth from this memory (bytes/s)
system.physmem.bw_read::cpu02.inst              91140                       # Total read bandwidth from this memory (bytes/s)
system.physmem.bw_read::cpu02.data            3899812                       # Total read bandwidth from this memory (bytes/s)
system.physmem.bw_read::cpu03.inst              97535                       # Total read bandwidth from this memory (bytes/s)
system.physmem.bw_read::cpu03.data            3950978                       # Total read bandwidth from this memory (bytes/s)
system.physmem.bw_read::cpu04.inst              39973                       # Total read bandwidth from this memory (bytes/s)
system.physmem.bw_read::cpu04.data            4136455                       # Total read bandwidth from this memory (bytes/s)
system.physmem.bw_read::cpu05.inst              39973                       # Total read bandwidth from this memory (bytes/s)
system.physmem.bw_read::cpu05.data            3205873                       # Total read bandwidth from this memory (bytes/s)
system.physmem.bw_read::cpu06.inst              23984                       # Total read bandwidth from this memory (bytes/s)
system.physmem.bw_read::cpu06.data            3210670                       # Total read bandwidth from this memory (bytes/s)
system.physmem.bw_read::cpu07.inst              60760                       # Total read bandwidth from this memory (bytes/s)
system.physmem.bw_read::cpu07.data            2942048                       # Total read bandwidth from this memory (bytes/s)
system.physmem.bw_read::cpu08.inst               4797                       # Total read bandwidth from this memory (bytes/s)
system.physmem.bw_read::cpu08.data            2802940                       # Total read bandwidth from this memory (bytes/s)
system.physmem.bw_read::cpu09.inst              38375                       # Total read bandwidth from this memory (bytes/s)
system.physmem.bw_read::cpu09.data            3058770                       # Total read bandwidth from this memory (bytes/s)
system.physmem.bw_read::cpu10.inst              30380                       # Total read bandwidth from this memory (bytes/s)
system.physmem.bw_read::cpu10.data            2996412                       # Total read bandwidth from this memory (bytes/s)
system.physmem.bw_read::cpu11.inst              12792                       # Total read bandwidth from this memory (bytes/s)
system.physmem.bw_read::cpu11.data            3173894                       # Total read bandwidth from this memory (bytes/s)
system.physmem.bw_read::cpu12.inst               9594                       # Total read bandwidth from this memory (bytes/s)
system.physmem.bw_read::cpu12.data            3524062                       # Total read bandwidth from this memory (bytes/s)
system.physmem.bw_read::cpu13.inst               9594                       # Total read bandwidth from this memory (bytes/s)
system.physmem.bw_read::cpu13.data            2938850                       # Total read bandwidth from this memory (bytes/s)
system.physmem.bw_read::cpu14.inst               6396                       # Total read bandwidth from this memory (bytes/s)
system.physmem.bw_read::cpu14.data            3317798                       # Total read bandwidth from this memory (bytes/s)
system.physmem.bw_read::cpu15.inst              30380                       # Total read bandwidth from this memory (bytes/s)
system.physmem.bw_read::cpu15.data            3017198                       # Total read bandwidth from this memory (bytes/s)
system.physmem.bw_read::cpu16.inst              30380                       # Total read bandwidth from this memory (bytes/s)
system.physmem.bw_read::cpu16.data            2967631                       # Total read bandwidth from this memory (bytes/s)
system.physmem.bw_read::total                54682116                       # Total read bandwidth from this memory (bytes/s)
system.physmem.bw_inst_read::cpu00.inst        514858                       # Instruction read bandwidth from this memory (bytes/s)
system.physmem.bw_inst_read::cpu01.inst         95936                       # Instruction read bandwidth from this memory (bytes/s)
system.physmem.bw_inst_read::cpu02.inst         91140                       # Instruction read bandwidth from this memory (bytes/s)
system.physmem.bw_inst_read::cpu03.inst         97535                       # Instruction read bandwidth from this memory (bytes/s)
system.physmem.bw_inst_read::cpu04.inst         39973                       # Instruction read bandwidth from this memory (bytes/s)
system.physmem.bw_inst_read::cpu05.inst         39973                       # Instruction read bandwidth from this memory (bytes/s)
system.physmem.bw_inst_read::cpu06.inst         23984                       # Instruction read bandwidth from this memory (bytes/s)
system.physmem.bw_inst_read::cpu07.inst         60760                       # Instruction read bandwidth from this memory (bytes/s)
system.physmem.bw_inst_read::cpu08.inst          4797                       # Instruction read bandwidth from this memory (bytes/s)
system.physmem.bw_inst_read::cpu09.inst         38375                       # Instruction read bandwidth from this memory (bytes/s)
system.physmem.bw_inst_read::cpu10.inst         30380                       # Instruction read bandwidth from this memory (bytes/s)
system.physmem.bw_inst_read::cpu11.inst         12792                       # Instruction read bandwidth from this memory (bytes/s)
system.physmem.bw_inst_read::cpu12.inst          9594                       # Instruction read bandwidth from this memory (bytes/s)
system.physmem.bw_inst_read::cpu13.inst          9594                       # Instruction read bandwidth from this memory (bytes/s)
system.physmem.bw_inst_read::cpu14.inst          6396                       # Instruction read bandwidth from this memory (bytes/s)
system.physmem.bw_inst_read::cpu15.inst         30380                       # Instruction read bandwidth from this memory (bytes/s)
system.physmem.bw_inst_read::cpu16.inst         30380                       # Instruction read bandwidth from this memory (bytes/s)
system.physmem.bw_inst_read::total            1136846                       # Instruction read bandwidth from this memory (bytes/s)
system.physmem.bw_write::writebacks           1282349                       # Write bandwidth from this memory (bytes/s)
system.physmem.bw_write::total                1282349                       # Write bandwidth from this memory (bytes/s)
system.physmem.bw_total::writebacks           1282349                       # Total bandwidth to/from this memory (bytes/s)
system.physmem.bw_total::cpu00.inst            514858                       # Total bandwidth to/from this memory (bytes/s)
system.physmem.bw_total::cpu00.data            473286                       # Total bandwidth to/from this memory (bytes/s)
system.physmem.bw_total::cpu01.inst             95936                       # Total bandwidth to/from this memory (bytes/s)
system.physmem.bw_total::cpu01.data           3928593                       # Total bandwidth to/from this memory (bytes/s)
system.physmem.bw_total::cpu02.inst             91140                       # Total bandwidth to/from this memory (bytes/s)
system.physmem.bw_total::cpu02.data           3899812                       # Total bandwidth to/from this memory (bytes/s)
system.physmem.bw_total::cpu03.inst             97535                       # Total bandwidth to/from this memory (bytes/s)
system.physmem.bw_total::cpu03.data           3950978                       # Total bandwidth to/from this memory (bytes/s)
system.physmem.bw_total::cpu04.inst             39973                       # Total bandwidth to/from this memory (bytes/s)
system.physmem.bw_total::cpu04.data           4136455                       # Total bandwidth to/from this memory (bytes/s)
system.physmem.bw_total::cpu05.inst             39973                       # Total bandwidth to/from this memory (bytes/s)
system.physmem.bw_total::cpu05.data           3205873                       # Total bandwidth to/from this memory (bytes/s)
system.physmem.bw_total::cpu06.inst             23984                       # Total bandwidth to/from this memory (bytes/s)
system.physmem.bw_total::cpu06.data           3210670                       # Total bandwidth to/from this memory (bytes/s)
system.physmem.bw_total::cpu07.inst             60760                       # Total bandwidth to/from this memory (bytes/s)
system.physmem.bw_total::cpu07.data           2942048                       # Total bandwidth to/from this memory (bytes/s)
system.physmem.bw_total::cpu08.inst              4797                       # Total bandwidth to/from this memory (bytes/s)
system.physmem.bw_total::cpu08.data           2802940                       # Total bandwidth to/from this memory (bytes/s)
system.physmem.bw_total::cpu09.inst             38375                       # Total bandwidth to/from this memory (bytes/s)
system.physmem.bw_total::cpu09.data           3058770                       # Total bandwidth to/from this memory (bytes/s)
system.physmem.bw_total::cpu10.inst             30380                       # Total bandwidth to/from this memory (bytes/s)
system.physmem.bw_total::cpu10.data           2996412                       # Total bandwidth to/from this memory (bytes/s)
system.physmem.bw_total::cpu11.inst             12792                       # Total bandwidth to/from this memory (bytes/s)
system.physmem.bw_total::cpu11.data           3173894                       # Total bandwidth to/from this memory (bytes/s)
system.physmem.bw_total::cpu12.inst              9594                       # Total bandwidth to/from this memory (bytes/s)
system.physmem.bw_total::cpu12.data           3524062                       # Total bandwidth to/from this memory (bytes/s)
system.physmem.bw_total::cpu13.inst              9594                       # Total bandwidth to/from this memory (bytes/s)
system.physmem.bw_total::cpu13.data           2938850                       # Total bandwidth to/from this memory (bytes/s)
system.physmem.bw_total::cpu14.inst              6396                       # Total bandwidth to/from this memory (bytes/s)
system.physmem.bw_total::cpu14.data           3317798                       # Total bandwidth to/from this memory (bytes/s)
system.physmem.bw_total::cpu15.inst             30380                       # Total bandwidth to/from this memory (bytes/s)
system.physmem.bw_total::cpu15.data           3017198                       # Total bandwidth to/from this memory (bytes/s)
system.physmem.bw_total::cpu16.inst             30380                       # Total bandwidth to/from this memory (bytes/s)
system.physmem.bw_total::cpu16.data           2967631                       # Total bandwidth to/from this memory (bytes/s)
system.physmem.bw_total::total               55964465                       # Total bandwidth to/from this memory (bytes/s)
system.cpu00.branchPred.lookups              20001865                       # Number of BP lookups
system.cpu00.branchPred.condPredicted        20000653                       # Number of conditional branches predicted
system.cpu00.branchPred.condIncorrect             714                       # Number of conditional branches incorrect
system.cpu00.branchPred.BTBLookups           19999528                       # Number of BTB lookups
system.cpu00.branchPred.BTBHits              19999111                       # Number of BTB hits
system.cpu00.branchPred.BTBCorrect                  0                       # Number of correct BTB predictions (this stat may not work properly.
system.cpu00.branchPred.BTBHitPct           99.997915                       # BTB Hit Percentage
system.cpu00.branchPred.usedRAS                   459                       # Number of times the RAS was used to get a target.
system.cpu00.branchPred.RASInCorrect               51                       # Number of incorrect RAS predictions.
system.cpu00.dstage2_mmu.stage2_tlb.walker.walks            0                       # Table walker walks requested
system.cpu00.dstage2_mmu.stage2_tlb.walker.walkRequestOrigin_Requested::Data            0                       # Table walker requests started/completed, data/inst
system.cpu00.dstage2_mmu.stage2_tlb.walker.walkRequestOrigin_Requested::Inst            0                       # Table walker requests started/completed, data/inst
system.cpu00.dstage2_mmu.stage2_tlb.walker.walkRequestOrigin_Requested::total            0                       # Table walker requests started/completed, data/inst
system.cpu00.dstage2_mmu.stage2_tlb.walker.walkRequestOrigin_Completed::Data            0                       # Table walker requests started/completed, data/inst
system.cpu00.dstage2_mmu.stage2_tlb.walker.walkRequestOrigin_Completed::Inst            0                       # Table walker requests started/completed, data/inst
system.cpu00.dstage2_mmu.stage2_tlb.walker.walkRequestOrigin_Completed::total            0                       # Table walker requests started/completed, data/inst
system.cpu00.dstage2_mmu.stage2_tlb.walker.walkRequestOrigin::total            0                       # Table walker requests started/completed, data/inst
system.cpu00.dstage2_mmu.stage2_tlb.inst_hits            0                       # ITB inst hits
system.cpu00.dstage2_mmu.stage2_tlb.inst_misses            0                       # ITB inst misses
system.cpu00.dstage2_mmu.stage2_tlb.read_hits            0                       # DTB read hits
system.cpu00.dstage2_mmu.stage2_tlb.read_misses            0                       # DTB read misses
system.cpu00.dstage2_mmu.stage2_tlb.write_hits            0                       # DTB write hits
system.cpu00.dstage2_mmu.stage2_tlb.write_misses            0                       # DTB write misses
system.cpu00.dstage2_mmu.stage2_tlb.flush_tlb            0                       # Number of times complete TLB was flushed
system.cpu00.dstage2_mmu.stage2_tlb.flush_tlb_mva            0                       # Number of times TLB was flushed by MVA
system.cpu00.dstage2_mmu.stage2_tlb.flush_tlb_mva_asid            0                       # Number of times TLB was flushed by MVA & ASID
system.cpu00.dstage2_mmu.stage2_tlb.flush_tlb_asid            0                       # Number of times TLB was flushed by ASID
system.cpu00.dstage2_mmu.stage2_tlb.flush_entries            0                       # Number of entries that have been flushed from TLB
system.cpu00.dstage2_mmu.stage2_tlb.align_faults            0                       # Number of TLB faults due to alignment restrictions
system.cpu00.dstage2_mmu.stage2_tlb.prefetch_faults            0                       # Number of TLB faults due to prefetch
system.cpu00.dstage2_mmu.stage2_tlb.domain_faults            0                       # Number of TLB faults due to domain restrictions
system.cpu00.dstage2_mmu.stage2_tlb.perms_faults            0                       # Number of TLB faults due to permissions restrictions
system.cpu00.dstage2_mmu.stage2_tlb.read_accesses            0                       # DTB read accesses
system.cpu00.dstage2_mmu.stage2_tlb.write_accesses            0                       # DTB write accesses
system.cpu00.dstage2_mmu.stage2_tlb.inst_accesses            0                       # ITB inst accesses
system.cpu00.dstage2_mmu.stage2_tlb.hits            0                       # DTB hits
system.cpu00.dstage2_mmu.stage2_tlb.misses            0                       # DTB misses
system.cpu00.dstage2_mmu.stage2_tlb.accesses            0                       # DTB accesses
system.cpu00.dtb.walker.walks                       0                       # Table walker walks requested
system.cpu00.dtb.walker.walkRequestOrigin_Requested::Data            0                       # Table walker requests started/completed, data/inst
system.cpu00.dtb.walker.walkRequestOrigin_Requested::Inst            0                       # Table walker requests started/completed, data/inst
system.cpu00.dtb.walker.walkRequestOrigin_Requested::total            0                       # Table walker requests started/completed, data/inst
system.cpu00.dtb.walker.walkRequestOrigin_Completed::Data            0                       # Table walker requests started/completed, data/inst
system.cpu00.dtb.walker.walkRequestOrigin_Completed::Inst            0                       # Table walker requests started/completed, data/inst
system.cpu00.dtb.walker.walkRequestOrigin_Completed::total            0                       # Table walker requests started/completed, data/inst
system.cpu00.dtb.walker.walkRequestOrigin::total            0                       # Table walker requests started/completed, data/inst
system.cpu00.dtb.inst_hits                          0                       # ITB inst hits
system.cpu00.dtb.inst_misses                        0                       # ITB inst misses
system.cpu00.dtb.read_hits                          0                       # DTB read hits
system.cpu00.dtb.read_misses                        0                       # DTB read misses
system.cpu00.dtb.write_hits                         0                       # DTB write hits
system.cpu00.dtb.write_misses                       0                       # DTB write misses
system.cpu00.dtb.flush_tlb                          0                       # Number of times complete TLB was flushed
system.cpu00.dtb.flush_tlb_mva                      0                       # Number of times TLB was flushed by MVA
system.cpu00.dtb.flush_tlb_mva_asid                 0                       # Number of times TLB was flushed by MVA & ASID
system.cpu00.dtb.flush_tlb_asid                     0                       # Number of times TLB was flushed by ASID
system.cpu00.dtb.flush_entries                      0                       # Number of entries that have been flushed from TLB
system.cpu00.dtb.align_faults                       0                       # Number of TLB faults due to alignment restrictions
system.cpu00.dtb.prefetch_faults                    0                       # Number of TLB faults due to prefetch
system.cpu00.dtb.domain_faults                      0                       # Number of TLB faults due to domain restrictions
system.cpu00.dtb.perms_faults                       0                       # Number of TLB faults due to permissions restrictions
system.cpu00.dtb.read_accesses                      0                       # DTB read accesses
system.cpu00.dtb.write_accesses                     0                       # DTB write accesses
system.cpu00.dtb.inst_accesses                      0                       # ITB inst accesses
system.cpu00.dtb.hits                               0                       # DTB hits
system.cpu00.dtb.misses                             0                       # DTB misses
system.cpu00.dtb.accesses                           0                       # DTB accesses
system.cpu00.istage2_mmu.stage2_tlb.walker.walks            0                       # Table walker walks requested
system.cpu00.istage2_mmu.stage2_tlb.walker.walkRequestOrigin_Requested::Data            0                       # Table walker requests started/completed, data/inst
system.cpu00.istage2_mmu.stage2_tlb.walker.walkRequestOrigin_Requested::Inst            0                       # Table walker requests started/completed, data/inst
system.cpu00.istage2_mmu.stage2_tlb.walker.walkRequestOrigin_Requested::total            0                       # Table walker requests started/completed, data/inst
system.cpu00.istage2_mmu.stage2_tlb.walker.walkRequestOrigin_Completed::Data            0                       # Table walker requests started/completed, data/inst
system.cpu00.istage2_mmu.stage2_tlb.walker.walkRequestOrigin_Completed::Inst            0                       # Table walker requests started/completed, data/inst
system.cpu00.istage2_mmu.stage2_tlb.walker.walkRequestOrigin_Completed::total            0                       # Table walker requests started/completed, data/inst
system.cpu00.istage2_mmu.stage2_tlb.walker.walkRequestOrigin::total            0                       # Table walker requests started/completed, data/inst
system.cpu00.istage2_mmu.stage2_tlb.inst_hits            0                       # ITB inst hits
system.cpu00.istage2_mmu.stage2_tlb.inst_misses            0                       # ITB inst misses
system.cpu00.istage2_mmu.stage2_tlb.read_hits            0                       # DTB read hits
system.cpu00.istage2_mmu.stage2_tlb.read_misses            0                       # DTB read misses
system.cpu00.istage2_mmu.stage2_tlb.write_hits            0                       # DTB write hits
system.cpu00.istage2_mmu.stage2_tlb.write_misses            0                       # DTB write misses
system.cpu00.istage2_mmu.stage2_tlb.flush_tlb            0                       # Number of times complete TLB was flushed
system.cpu00.istage2_mmu.stage2_tlb.flush_tlb_mva            0                       # Number of times TLB was flushed by MVA
system.cpu00.istage2_mmu.stage2_tlb.flush_tlb_mva_asid            0                       # Number of times TLB was flushed by MVA & ASID
system.cpu00.istage2_mmu.stage2_tlb.flush_tlb_asid            0                       # Number of times TLB was flushed by ASID
system.cpu00.istage2_mmu.stage2_tlb.flush_entries            0                       # Number of entries that have been flushed from TLB
system.cpu00.istage2_mmu.stage2_tlb.align_faults            0                       # Number of TLB faults due to alignment restrictions
system.cpu00.istage2_mmu.stage2_tlb.prefetch_faults            0                       # Number of TLB faults due to prefetch
system.cpu00.istage2_mmu.stage2_tlb.domain_faults            0                       # Number of TLB faults due to domain restrictions
system.cpu00.istage2_mmu.stage2_tlb.perms_faults            0                       # Number of TLB faults due to permissions restrictions
system.cpu00.istage2_mmu.stage2_tlb.read_accesses            0                       # DTB read accesses
system.cpu00.istage2_mmu.stage2_tlb.write_accesses            0                       # DTB write accesses
system.cpu00.istage2_mmu.stage2_tlb.inst_accesses            0                       # ITB inst accesses
system.cpu00.istage2_mmu.stage2_tlb.hits            0                       # DTB hits
system.cpu00.istage2_mmu.stage2_tlb.misses            0                       # DTB misses
system.cpu00.istage2_mmu.stage2_tlb.accesses            0                       # DTB accesses
system.cpu00.itb.walker.walks                       0                       # Table walker walks requested
system.cpu00.itb.walker.walkRequestOrigin_Requested::Data            0                       # Table walker requests started/completed, data/inst
system.cpu00.itb.walker.walkRequestOrigin_Requested::Inst            0                       # Table walker requests started/completed, data/inst
system.cpu00.itb.walker.walkRequestOrigin_Requested::total            0                       # Table walker requests started/completed, data/inst
system.cpu00.itb.walker.walkRequestOrigin_Completed::Data            0                       # Table walker requests started/completed, data/inst
system.cpu00.itb.walker.walkRequestOrigin_Completed::Inst            0                       # Table walker requests started/completed, data/inst
system.cpu00.itb.walker.walkRequestOrigin_Completed::total            0                       # Table walker requests started/completed, data/inst
system.cpu00.itb.walker.walkRequestOrigin::total            0                       # Table walker requests started/completed, data/inst
system.cpu00.itb.inst_hits                          0                       # ITB inst hits
system.cpu00.itb.inst_misses                        0                       # ITB inst misses
system.cpu00.itb.read_hits                          0                       # DTB read hits
system.cpu00.itb.read_misses                        0                       # DTB read misses
system.cpu00.itb.write_hits                         0                       # DTB write hits
system.cpu00.itb.write_misses                       0                       # DTB write misses
system.cpu00.itb.flush_tlb                          0                       # Number of times complete TLB was flushed
system.cpu00.itb.flush_tlb_mva                      0                       # Number of times TLB was flushed by MVA
system.cpu00.itb.flush_tlb_mva_asid                 0                       # Number of times TLB was flushed by MVA & ASID
system.cpu00.itb.flush_tlb_asid                     0                       # Number of times TLB was flushed by ASID
system.cpu00.itb.flush_entries                      0                       # Number of entries that have been flushed from TLB
system.cpu00.itb.align_faults                       0                       # Number of TLB faults due to alignment restrictions
system.cpu00.itb.prefetch_faults                    0                       # Number of TLB faults due to prefetch
system.cpu00.itb.domain_faults                      0                       # Number of TLB faults due to domain restrictions
system.cpu00.itb.perms_faults                       0                       # Number of TLB faults due to permissions restrictions
system.cpu00.itb.read_accesses                      0                       # DTB read accesses
system.cpu00.itb.write_accesses                     0                       # DTB write accesses
system.cpu00.itb.inst_accesses                      0                       # ITB inst accesses
system.cpu00.itb.hits                               0                       # DTB hits
system.cpu00.itb.misses                             0                       # DTB misses
system.cpu00.itb.accesses                           0                       # DTB accesses
system.cpu00.workload.num_syscalls             506407                       # Number of system calls
system.cpu00.numCycles                       40026543                       # number of cpu cycles simulated
system.cpu00.numWorkItemsStarted                    0                       # number of work items this cpu started
system.cpu00.numWorkItemsCompleted                  0                       # number of work items this cpu completed
system.cpu00.fetch.icacheStallCycles             8187                       # Number of cycles fetch is stalled on an Icache miss
system.cpu00.fetch.Insts                    100011277                       # Number of instructions fetch has processed
system.cpu00.fetch.Branches                  20001865                       # Number of branches that fetch encountered
system.cpu00.fetch.predictedBranches         19999570                       # Number of branches that fetch has predicted taken
system.cpu00.fetch.Cycles                    40009909                       # Number of cycles fetch has run and was not squashing or blocked
system.cpu00.fetch.SquashCycles                  1690                       # Number of cycles fetch has spent squashing
system.cpu00.fetch.PendingTrapStallCycles          167                       # Number of stall cycles due to pending traps
system.cpu00.fetch.CacheLines                    2475                       # Number of cache lines fetched
system.cpu00.fetch.IcacheSquashes                 249                       # Number of outstanding Icache misses that were squashed
system.cpu00.fetch.rateDist::samples         40019108                       # Number of instructions fetched each cycle (Total)
system.cpu00.fetch.rateDist::mean            2.499225                       # Number of instructions fetched each cycle (Total)
system.cpu00.fetch.rateDist::stdev           0.502025                       # Number of instructions fetched each cycle (Total)
system.cpu00.fetch.rateDist::underflows             0      0.00%      0.00% # Number of instructions fetched each cycle (Total)
system.cpu00.fetch.rateDist::0                  13283      0.03%      0.03% # Number of instructions fetched each cycle (Total)
system.cpu00.fetch.rateDist::1                    770      0.00%      0.04% # Number of instructions fetched each cycle (Total)
system.cpu00.fetch.rateDist::2               19999175     49.97%     50.01% # Number of instructions fetched each cycle (Total)
system.cpu00.fetch.rateDist::3               20005880     49.99%    100.00% # Number of instructions fetched each cycle (Total)
system.cpu00.fetch.rateDist::overflows              0      0.00%    100.00% # Number of instructions fetched each cycle (Total)
system.cpu00.fetch.rateDist::min_value              0                       # Number of instructions fetched each cycle (Total)
system.cpu00.fetch.rateDist::max_value              3                       # Number of instructions fetched each cycle (Total)
system.cpu00.fetch.rateDist::total           40019108                       # Number of instructions fetched each cycle (Total)
system.cpu00.fetch.branchRate                0.499715                       # Number of branch fetches per cycle
system.cpu00.fetch.rate                      2.498624                       # Number of inst fetches per cycle
system.cpu00.decode.IdleCycles                   7755                       # Number of cycles decode is idle
system.cpu00.decode.BlockedCycles                6405                       # Number of cycles decode is blocked
system.cpu00.decode.RunCycles                40003555                       # Number of cycles decode is running
system.cpu00.decode.UnblockCycles                 727                       # Number of cycles decode is unblocking
system.cpu00.decode.SquashCycles                  666                       # Number of cycles decode is squashing
system.cpu00.decode.BranchResolved                445                       # Number of times decode resolved a branch
system.cpu00.decode.BranchMispred                 193                       # Number of times decode detected a branch misprediction
system.cpu00.decode.DecodedInsts            100012927                       # Number of instructions handled by decode
system.cpu00.decode.SquashedInsts                 437                       # Number of squashed instructions handled by decode
system.cpu00.rename.SquashCycles                  666                       # Number of cycles rename is squashing
system.cpu00.rename.IdleCycles                   8488                       # Number of cycles rename is idle
system.cpu00.rename.BlockCycles                   585                       # Number of cycles rename is blocking
system.cpu00.rename.serializeStallCycles         3463                       # count of cycles rename stalled for serializing inst
system.cpu00.rename.RunCycles                40003457                       # Number of cycles rename is running
system.cpu00.rename.UnblockCycles                2449                       # Number of cycles rename is unblocking
system.cpu00.rename.RenamedInsts            100011702                       # Number of instructions processed by rename
system.cpu00.rename.SQFullEvents                 2331                       # Number of times rename has blocked due to SQ full
system.cpu00.rename.RenamedOperands         100013301                       # Number of destination operands rename has renamed
system.cpu00.rename.RenameLookups           460058617                       # Number of register rename lookups that rename has made
system.cpu00.rename.int_rename_lookups      100017747                       # Number of integer rename lookups
system.cpu00.rename.fp_rename_lookups              16                       # Number of floating rename lookups
system.cpu00.rename.CommittedMaps           100004319                       # Number of HB maps that are committed
system.cpu00.rename.UndoneMaps                   8953                       # Number of HB maps that are undone due to squashing
system.cpu00.rename.serializingInsts               71                       # count of serializing insts renamed
system.cpu00.rename.tempSerializingInsts           70                       # count of temporary serializing insts renamed
system.cpu00.rename.skidInsts                    1202                       # count of insts added to the skid buffer
system.cpu00.memDep0.insertedLoads           39999226                       # Number of loads inserted to the mem dependence unit.
system.cpu00.memDep0.insertedStores          20002391                       # Number of stores inserted to the mem dependence unit.
system.cpu00.memDep0.conflictingLoads        19997939                       # Number of conflicting loads.
system.cpu00.memDep0.conflictingStores       19997896                       # Number of conflicting stores.
system.cpu00.iq.iqInstsAdded                100009525                       # Number of instructions added to the IQ (excludes non-spec)
system.cpu00.iq.iqNonSpecInstsAdded                91                       # Number of non-speculative instructions added to the IQ
system.cpu00.iq.iqInstsIssued               100007234                       # Number of instructions issued
system.cpu00.iq.iqSquashedInstsIssued             382                       # Number of squashed instructions issued
system.cpu00.iq.iqSquashedInstsExamined          6034                       # Number of squashed instructions iterated over during squash; mainly for profiling
system.cpu00.iq.iqSquashedOperandsExamined        14780                       # Number of squashed operands that are examined and possibly removed from graph
system.cpu00.iq.iqSquashedNonSpecRemoved            3                       # Number of squashed non-spec instructions that were removed
system.cpu00.iq.issued_per_cycle::samples     40019108                       # Number of insts issued each cycle
system.cpu00.iq.issued_per_cycle::mean       2.498987                       # Number of insts issued each cycle
system.cpu00.iq.issued_per_cycle::stdev      0.708669                       # Number of insts issued each cycle
system.cpu00.iq.issued_per_cycle::underflows            0      0.00%      0.00% # Number of insts issued each cycle
system.cpu00.iq.issued_per_cycle::0             14671      0.04%      0.04% # Number of insts issued each cycle
system.cpu00.iq.issued_per_cycle::1           5002652     12.50%     12.54% # Number of insts issued each cycle
system.cpu00.iq.issued_per_cycle::2          10000773     24.99%     37.53% # Number of insts issued each cycle
system.cpu00.iq.issued_per_cycle::3          25001012     62.47%    100.00% # Number of insts issued each cycle
system.cpu00.iq.issued_per_cycle::overflows            0      0.00%    100.00% # Number of insts issued each cycle
system.cpu00.iq.issued_per_cycle::min_value            0                       # Number of insts issued each cycle
system.cpu00.iq.issued_per_cycle::max_value            3                       # Number of insts issued each cycle
system.cpu00.iq.issued_per_cycle::total      40019108                       # Number of insts issued each cycle
system.cpu00.iq.fu_full::No_OpClass                 0                       # attempts to use FU when none available
system.cpu00.iq.fu_full::IntAlu                     0                       # attempts to use FU when none available
system.cpu00.iq.fu_full::IntMult                    0                       # attempts to use FU when none available
system.cpu00.iq.fu_full::IntDiv                     0                       # attempts to use FU when none available
system.cpu00.iq.fu_full::FloatAdd                   0                       # attempts to use FU when none available
system.cpu00.iq.fu_full::FloatCmp                   0                       # attempts to use FU when none available
system.cpu00.iq.fu_full::FloatCvt                   0                       # attempts to use FU when none available
system.cpu00.iq.fu_full::FloatMult                  0                       # attempts to use FU when none available
system.cpu00.iq.fu_full::FloatDiv                   0                       # attempts to use FU when none available
system.cpu00.iq.fu_full::FloatSqrt                  0                       # attempts to use FU when none available
system.cpu00.iq.fu_full::SimdAdd                    0                       # attempts to use FU when none available
system.cpu00.iq.fu_full::SimdAddAcc                 0                       # attempts to use FU when none available
system.cpu00.iq.fu_full::SimdAlu                    0                       # attempts to use FU when none available
system.cpu00.iq.fu_full::SimdCmp                    0                       # attempts to use FU when none available
system.cpu00.iq.fu_full::SimdCvt                    0                       # attempts to use FU when none available
system.cpu00.iq.fu_full::SimdMisc                   0                       # attempts to use FU when none available
system.cpu00.iq.fu_full::SimdMult                   0                       # attempts to use FU when none available
system.cpu00.iq.fu_full::SimdMultAcc                0                       # attempts to use FU when none available
system.cpu00.iq.fu_full::SimdShift                  0                       # attempts to use FU when none available
system.cpu00.iq.fu_full::SimdShiftAcc               0                       # attempts to use FU when none available
system.cpu00.iq.fu_full::SimdSqrt                   0                       # attempts to use FU when none available
system.cpu00.iq.fu_full::SimdFloatAdd               0                       # attempts to use FU when none available
system.cpu00.iq.fu_full::SimdFloatAlu               0                       # attempts to use FU when none available
system.cpu00.iq.fu_full::SimdFloatCmp               0                       # attempts to use FU when none available
system.cpu00.iq.fu_full::SimdFloatCvt               0                       # attempts to use FU when none available
system.cpu00.iq.fu_full::SimdFloatDiv               0                       # attempts to use FU when none available
system.cpu00.iq.fu_full::SimdFloatMisc              0                       # attempts to use FU when none available
system.cpu00.iq.fu_full::SimdFloatMult              0                       # attempts to use FU when none available
system.cpu00.iq.fu_full::SimdFloatMultAcc            0                       # attempts to use FU when none available
system.cpu00.iq.fu_full::SimdFloatSqrt              0                       # attempts to use FU when none available
system.cpu00.iq.fu_full::MemRead                    0                       # attempts to use FU when none available
system.cpu00.iq.fu_full::MemWrite                   0                       # attempts to use FU when none available
system.cpu00.iq.fu_full::IprAccess                  0                       # attempts to use FU when none available
system.cpu00.iq.fu_full::InstPrefetch               0                       # attempts to use FU when none available
system.cpu00.iq.FU_type_0::No_OpClass               0      0.00%      0.00% # Type of FU issued
system.cpu00.iq.FU_type_0::IntAlu            40006362     40.00%     40.00% # Type of FU issued
system.cpu00.iq.FU_type_0::IntMult                  8      0.00%     40.00% # Type of FU issued
system.cpu00.iq.FU_type_0::IntDiv                   0      0.00%     40.00% # Type of FU issued
system.cpu00.iq.FU_type_0::FloatAdd                 0      0.00%     40.00% # Type of FU issued
system.cpu00.iq.FU_type_0::FloatCmp                 0      0.00%     40.00% # Type of FU issued
system.cpu00.iq.FU_type_0::FloatCvt                 0      0.00%     40.00% # Type of FU issued
system.cpu00.iq.FU_type_0::FloatMult                0      0.00%     40.00% # Type of FU issued
system.cpu00.iq.FU_type_0::FloatDiv                 0      0.00%     40.00% # Type of FU issued
system.cpu00.iq.FU_type_0::FloatSqrt                0      0.00%     40.00% # Type of FU issued
system.cpu00.iq.FU_type_0::SimdAdd                  0      0.00%     40.00% # Type of FU issued
system.cpu00.iq.FU_type_0::SimdAddAcc               0      0.00%     40.00% # Type of FU issued
system.cpu00.iq.FU_type_0::SimdAlu                  0      0.00%     40.00% # Type of FU issued
system.cpu00.iq.FU_type_0::SimdCmp                  0      0.00%     40.00% # Type of FU issued
system.cpu00.iq.FU_type_0::SimdCvt                  0      0.00%     40.00% # Type of FU issued
system.cpu00.iq.FU_type_0::SimdMisc                 0      0.00%     40.00% # Type of FU issued
system.cpu00.iq.FU_type_0::SimdMult                 0      0.00%     40.00% # Type of FU issued
system.cpu00.iq.FU_type_0::SimdMultAcc              0      0.00%     40.00% # Type of FU issued
system.cpu00.iq.FU_type_0::SimdShift                0      0.00%     40.00% # Type of FU issued
system.cpu00.iq.FU_type_0::SimdShiftAcc             0      0.00%     40.00% # Type of FU issued
system.cpu00.iq.FU_type_0::SimdSqrt                 0      0.00%     40.00% # Type of FU issued
system.cpu00.iq.FU_type_0::SimdFloatAdd             0      0.00%     40.00% # Type of FU issued
system.cpu00.iq.FU_type_0::SimdFloatAlu             0      0.00%     40.00% # Type of FU issued
system.cpu00.iq.FU_type_0::SimdFloatCmp             0      0.00%     40.00% # Type of FU issued
system.cpu00.iq.FU_type_0::SimdFloatCvt             0      0.00%     40.00% # Type of FU issued
system.cpu00.iq.FU_type_0::SimdFloatDiv             0      0.00%     40.00% # Type of FU issued
system.cpu00.iq.FU_type_0::SimdFloatMisc            3      0.00%     40.00% # Type of FU issued
system.cpu00.iq.FU_type_0::SimdFloatMult            0      0.00%     40.00% # Type of FU issued
system.cpu00.iq.FU_type_0::SimdFloatMultAcc            0      0.00%     40.00% # Type of FU issued
system.cpu00.iq.FU_type_0::SimdFloatSqrt            0      0.00%     40.00% # Type of FU issued
system.cpu00.iq.FU_type_0::MemRead           39998794     40.00%     80.00% # Type of FU issued
system.cpu00.iq.FU_type_0::MemWrite          20002067     20.00%    100.00% # Type of FU issued
system.cpu00.iq.FU_type_0::IprAccess                0      0.00%    100.00% # Type of FU issued
system.cpu00.iq.FU_type_0::InstPrefetch             0      0.00%    100.00% # Type of FU issued
system.cpu00.iq.FU_type_0::total            100007234                       # Type of FU issued
system.cpu00.iq.rate                         2.498523                       # Inst issue rate
system.cpu00.iq.fu_busy_cnt                         0                       # FU busy when requested
system.cpu00.iq.fu_busy_rate                        0                       # FU busy rate (busy events/executed inst)
system.cpu00.iq.int_inst_queue_reads        240033923                       # Number of integer instruction queue reads
system.cpu00.iq.int_inst_queue_writes       100015726                       # Number of integer instruction queue writes
system.cpu00.iq.int_inst_queue_wakeup_accesses    100006031                       # Number of integer instruction queue wakeup accesses
system.cpu00.iq.fp_inst_queue_reads                32                       # Number of floating instruction queue reads
system.cpu00.iq.fp_inst_queue_writes               16                       # Number of floating instruction queue writes
system.cpu00.iq.fp_inst_queue_wakeup_accesses           16                       # Number of floating instruction queue wakeup accesses
system.cpu00.iq.int_alu_accesses            100007218                       # Number of integer alu accesses
system.cpu00.iq.fp_alu_accesses                    16                       # Number of floating point alu accesses
system.cpu00.iew.lsq.thread0.forwLoads       19998133                       # Number of loads that had data forwarded from stores
system.cpu00.iew.lsq.thread0.invAddrLoads            0                       # Number of loads ignored due to an invalid address
system.cpu00.iew.lsq.thread0.squashedLoads         1600                       # Number of loads squashed
system.cpu00.iew.lsq.thread0.ignoredResponses            0                       # Number of memory responses ignored because the instruction is squashed
system.cpu00.iew.lsq.thread0.memOrderViolation           92                       # Number of memory ordering violations
system.cpu00.iew.lsq.thread0.squashedStores          643                       # Number of stores squashed
system.cpu00.iew.lsq.thread0.invAddrSwpfs            0                       # Number of software prefetches ignored due to an invalid address
system.cpu00.iew.lsq.thread0.blockedLoads            0                       # Number of blocked loads due to partial load-store forwarding
system.cpu00.iew.lsq.thread0.rescheduledLoads            5                       # Number of loads that were rescheduled
system.cpu00.iew.lsq.thread0.cacheBlocked            0                       # Number of times an access to memory failed due to the cache being blocked
system.cpu00.iew.iewIdleCycles                      0                       # Number of cycles IEW is idle
system.cpu00.iew.iewSquashCycles                  666                       # Number of cycles IEW is squashing
system.cpu00.iew.iewBlockCycles                   460                       # Number of cycles IEW is blocking
system.cpu00.iew.iewUnblockCycles                 128                       # Number of cycles IEW is unblocking
system.cpu00.iew.iewDispatchedInsts         100009635                       # Number of instructions dispatched to IQ
system.cpu00.iew.iewDispSquashedInsts             400                       # Number of squashed instructions skipped by dispatch
system.cpu00.iew.iewDispLoadInsts            39999226                       # Number of dispatched load instructions
system.cpu00.iew.iewDispStoreInsts           20002391                       # Number of dispatched store instructions
system.cpu00.iew.iewDispNonSpecInsts               67                       # Number of dispatched non-speculative instructions
system.cpu00.iew.iewIQFullEvents                    2                       # Number of times the IQ has become full, causing a stall
system.cpu00.iew.iewLSQFullEvents                   4                       # Number of times the LSQ has become full, causing a stall
system.cpu00.iew.memOrderViolationEvents           92                       # Number of memory order violations
system.cpu00.iew.predictedTakenIncorrect           71                       # Number of branches that were predicted taken incorrectly
system.cpu00.iew.predictedNotTakenIncorrect          490                       # Number of branches that were predicted not taken incorrectly
system.cpu00.iew.branchMispredicts                561                       # Number of branch mispredicts detected at execute
system.cpu00.iew.iewExecutedInsts           100006484                       # Number of executed instructions
system.cpu00.iew.iewExecLoadInsts            39998594                       # Number of load instructions executed
system.cpu00.iew.iewExecSquashedInsts             747                       # Number of squashed instructions skipped in execute
system.cpu00.iew.exec_swp                           0                       # number of swp insts executed
system.cpu00.iew.exec_nop                          19                       # number of nop insts executed
system.cpu00.iew.exec_refs                   60000507                       # number of memory reference insts executed
system.cpu00.iew.exec_branches               20000160                       # Number of branches executed
system.cpu00.iew.exec_stores                 20001913                       # Number of stores executed
system.cpu00.iew.exec_rate                   2.498504                       # Inst execution rate
system.cpu00.iew.wb_sent                    100006174                       # cumulative count of insts sent to commit
system.cpu00.iew.wb_count                   100006047                       # cumulative count of insts written-back
system.cpu00.iew.wb_producers                60001053                       # num instructions producing a value
system.cpu00.iew.wb_consumers                60011773                       # num instructions consuming a value
system.cpu00.iew.wb_penalized                       0                       # number of instrctions required to write to 'other' IQ
system.cpu00.iew.wb_rate                     2.498493                       # insts written-back per cycle
system.cpu00.iew.wb_fanout                   0.999821                       # average fanout of values written-back
system.cpu00.iew.wb_penalized_rate                  0                       # fraction of instructions written-back that wrote to 'other' IQ
system.cpu00.commit.commitSquashedInsts          6053                       # The number of squashed insts skipped by commit
system.cpu00.commit.commitNonSpecStalls            88                       # The number of times commit has been forced to stall to communicate backwards
system.cpu00.commit.branchMispredicts             535                       # The number of times a branch was mispredicted
system.cpu00.commit.committed_per_cycle::samples     40018001                       # Number of insts commited each cycle
system.cpu00.commit.committed_per_cycle::mean     2.498964                       # Number of insts commited each cycle
system.cpu00.commit.committed_per_cycle::stdev     1.581590                       # Number of insts commited each cycle
system.cpu00.commit.committed_per_cycle::underflows            0      0.00%      0.00% # Number of insts commited each cycle
system.cpu00.commit.committed_per_cycle::0        15815      0.04%      0.04% # Number of insts commited each cycle
system.cpu00.commit.committed_per_cycle::1     20000575     49.98%     50.02% # Number of insts commited each cycle
system.cpu00.commit.committed_per_cycle::2         1289      0.00%     50.02% # Number of insts commited each cycle
system.cpu00.commit.committed_per_cycle::3      5001310     12.50%     62.52% # Number of insts commited each cycle
system.cpu00.commit.committed_per_cycle::4      9999153     24.99%     87.51% # Number of insts commited each cycle
system.cpu00.commit.committed_per_cycle::5      4999566     12.49%    100.00% # Number of insts commited each cycle
system.cpu00.commit.committed_per_cycle::6          101      0.00%    100.00% # Number of insts commited each cycle
system.cpu00.commit.committed_per_cycle::7          107      0.00%    100.00% # Number of insts commited each cycle
system.cpu00.commit.committed_per_cycle::8           85      0.00%    100.00% # Number of insts commited each cycle
system.cpu00.commit.committed_per_cycle::overflows            0      0.00%    100.00% # Number of insts commited each cycle
system.cpu00.commit.committed_per_cycle::min_value            0                       # Number of insts commited each cycle
system.cpu00.commit.committed_per_cycle::max_value            8                       # Number of insts commited each cycle
system.cpu00.commit.committed_per_cycle::total     40018001                       # Number of insts commited each cycle
system.cpu00.commit.committedInsts          100000000                       # Number of instructions committed
system.cpu00.commit.committedOps            100003560                       # Number of ops (including micro ops) committed
system.cpu00.commit.swp_count                       0                       # Number of s/w prefetches committed
system.cpu00.commit.refs                     59999362                       # Number of memory references committed
system.cpu00.commit.loads                    39997618                       # Number of loads committed
system.cpu00.commit.membars                        24                       # Number of memory barriers committed
system.cpu00.commit.branches                 19999714                       # Number of branches committed
system.cpu00.commit.fp_insts                       16                       # Number of committed floating point instructions.
system.cpu00.commit.int_insts                80004273                       # Number of committed integer instructions.
system.cpu00.commit.function_calls                174                       # Number of function calls committed.
system.cpu00.commit.op_class_0::No_OpClass            0      0.00%      0.00% # Class of committed instruction
system.cpu00.commit.op_class_0::IntAlu       40004187     40.00%     40.00% # Class of committed instruction
system.cpu00.commit.op_class_0::IntMult             8      0.00%     40.00% # Class of committed instruction
system.cpu00.commit.op_class_0::IntDiv              0      0.00%     40.00% # Class of committed instruction
system.cpu00.commit.op_class_0::FloatAdd            0      0.00%     40.00% # Class of committed instruction
system.cpu00.commit.op_class_0::FloatCmp            0      0.00%     40.00% # Class of committed instruction
system.cpu00.commit.op_class_0::FloatCvt            0      0.00%     40.00% # Class of committed instruction
system.cpu00.commit.op_class_0::FloatMult            0      0.00%     40.00% # Class of committed instruction
system.cpu00.commit.op_class_0::FloatDiv            0      0.00%     40.00% # Class of committed instruction
system.cpu00.commit.op_class_0::FloatSqrt            0      0.00%     40.00% # Class of committed instruction
system.cpu00.commit.op_class_0::SimdAdd             0      0.00%     40.00% # Class of committed instruction
system.cpu00.commit.op_class_0::SimdAddAcc            0      0.00%     40.00% # Class of committed instruction
system.cpu00.commit.op_class_0::SimdAlu             0      0.00%     40.00% # Class of committed instruction
system.cpu00.commit.op_class_0::SimdCmp             0      0.00%     40.00% # Class of committed instruction
system.cpu00.commit.op_class_0::SimdCvt             0      0.00%     40.00% # Class of committed instruction
system.cpu00.commit.op_class_0::SimdMisc            0      0.00%     40.00% # Class of committed instruction
system.cpu00.commit.op_class_0::SimdMult            0      0.00%     40.00% # Class of committed instruction
system.cpu00.commit.op_class_0::SimdMultAcc            0      0.00%     40.00% # Class of committed instruction
system.cpu00.commit.op_class_0::SimdShift            0      0.00%     40.00% # Class of committed instruction
system.cpu00.commit.op_class_0::SimdShiftAcc            0      0.00%     40.00% # Class of committed instruction
system.cpu00.commit.op_class_0::SimdSqrt            0      0.00%     40.00% # Class of committed instruction
system.cpu00.commit.op_class_0::SimdFloatAdd            0      0.00%     40.00% # Class of committed instruction
system.cpu00.commit.op_class_0::SimdFloatAlu            0      0.00%     40.00% # Class of committed instruction
system.cpu00.commit.op_class_0::SimdFloatCmp            0      0.00%     40.00% # Class of committed instruction
system.cpu00.commit.op_class_0::SimdFloatCvt            0      0.00%     40.00% # Class of committed instruction
system.cpu00.commit.op_class_0::SimdFloatDiv            0      0.00%     40.00% # Class of committed instruction
system.cpu00.commit.op_class_0::SimdFloatMisc            3      0.00%     40.00% # Class of committed instruction
system.cpu00.commit.op_class_0::SimdFloatMult            0      0.00%     40.00% # Class of committed instruction
system.cpu00.commit.op_class_0::SimdFloatMultAcc            0      0.00%     40.00% # Class of committed instruction
system.cpu00.commit.op_class_0::SimdFloatSqrt            0      0.00%     40.00% # Class of committed instruction
system.cpu00.commit.op_class_0::MemRead      39997618     40.00%     80.00% # Class of committed instruction
system.cpu00.commit.op_class_0::MemWrite     20001744     20.00%    100.00% # Class of committed instruction
system.cpu00.commit.op_class_0::IprAccess            0      0.00%    100.00% # Class of committed instruction
system.cpu00.commit.op_class_0::InstPrefetch            0      0.00%    100.00% # Class of committed instruction
system.cpu00.commit.op_class_0::total       100003560                       # Class of committed instruction
system.cpu00.commit.bw_lim_events                  85                       # number cycles where commit BW limit reached
system.cpu00.rob.rob_reads                  140027008                       # The number of ROB reads
system.cpu00.rob.rob_writes                 200020360                       # The number of ROB writes
system.cpu00.timesIdled                           219                       # Number of times that the entire CPU went into an idle state and unscheduled itself
system.cpu00.idleCycles                          7435                       # Total number of cycles that the CPU has spent unscheduled due to idling
system.cpu00.committedInsts                 100000000                       # Number of Instructions Simulated
system.cpu00.committedOps                   100003560                       # Number of Ops (including micro ops) Simulated
system.cpu00.cpi                             0.400265                       # CPI: Cycles Per Instruction
system.cpu00.cpi_total                       0.400265                       # CPI: Total CPI of All Threads
system.cpu00.ipc                             2.498342                       # IPC: Instructions Per Cycle
system.cpu00.ipc_total                       2.498342                       # IPC: Total IPC of All Threads
system.cpu00.int_regfile_reads              100009885                       # number of integer regfile reads
system.cpu00.int_regfile_writes              40005300                       # number of integer regfile writes
system.cpu00.fp_regfile_reads                    2576                       # number of floating regfile reads
system.cpu00.cc_regfile_reads               420014022                       # number of cc regfile reads
system.cpu00.cc_regfile_writes               60001722                       # number of cc regfile writes
system.cpu00.misc_regfile_reads              62343425                       # number of misc regfile reads
system.cpu00.misc_regfile_writes                   50                       # number of misc regfile writes
system.cpu00.dcache.tags.replacements              41                       # number of replacements
system.cpu00.dcache.tags.tagsinuse         128.579823                       # Cycle average of tags in use
system.cpu00.dcache.tags.total_refs          39998799                       # Total number of references to valid blocks.
system.cpu00.dcache.tags.sampled_refs             167                       # Sample count of references to valid blocks.
system.cpu00.dcache.tags.avg_refs        239513.766467                       # Average number of references to valid blocks.
system.cpu00.dcache.tags.warmup_cycle               0                       # Cycle when the warmup percentage was hit.
system.cpu00.dcache.tags.occ_blocks::cpu00.data   128.579823                       # Average occupied blocks per requestor
system.cpu00.dcache.tags.occ_percent::cpu00.data     0.251132                       # Average percentage of cache occupancy
system.cpu00.dcache.tags.occ_percent::total     0.251132                       # Average percentage of cache occupancy
system.cpu00.dcache.tags.occ_task_id_blocks::1024          126                       # Occupied blocks per task id
system.cpu00.dcache.tags.age_task_id_blocks_1024::4          126                       # Occupied blocks per task id
system.cpu00.dcache.tags.occ_task_id_percent::1024     0.246094                       # Percentage of cache occupancy per task id
system.cpu00.dcache.tags.tag_accesses        80004307                       # Number of tag accesses
system.cpu00.dcache.tags.data_accesses       80004307                       # Number of data accesses
system.cpu00.dcache.ReadReq_hits::cpu00.data     20000103                       # number of ReadReq hits
system.cpu00.dcache.ReadReq_hits::total      20000103                       # number of ReadReq hits
system.cpu00.dcache.WriteReq_hits::cpu00.data     19999175                       # number of WriteReq hits
system.cpu00.dcache.WriteReq_hits::total     19999175                       # number of WriteReq hits
system.cpu00.dcache.LoadLockedReq_hits::cpu00.data           20                       # number of LoadLockedReq hits
system.cpu00.dcache.LoadLockedReq_hits::total           20                       # number of LoadLockedReq hits
system.cpu00.dcache.StoreCondReq_hits::cpu00.data           23                       # number of StoreCondReq hits
system.cpu00.dcache.StoreCondReq_hits::total           23                       # number of StoreCondReq hits
system.cpu00.dcache.demand_hits::cpu00.data     39999278                       # number of demand (read+write) hits
system.cpu00.dcache.demand_hits::total       39999278                       # number of demand (read+write) hits
system.cpu00.dcache.overall_hits::cpu00.data     39999278                       # number of overall hits
system.cpu00.dcache.overall_hits::total      39999278                       # number of overall hits
system.cpu00.dcache.ReadReq_misses::cpu00.data          166                       # number of ReadReq misses
system.cpu00.dcache.ReadReq_misses::total          166                       # number of ReadReq misses
system.cpu00.dcache.WriteReq_misses::cpu00.data         2501                       # number of WriteReq misses
system.cpu00.dcache.WriteReq_misses::total         2501                       # number of WriteReq misses
system.cpu00.dcache.LoadLockedReq_misses::cpu00.data            3                       # number of LoadLockedReq misses
system.cpu00.dcache.LoadLockedReq_misses::total            3                       # number of LoadLockedReq misses
system.cpu00.dcache.demand_misses::cpu00.data         2667                       # number of demand (read+write) misses
system.cpu00.dcache.demand_misses::total         2667                       # number of demand (read+write) misses
system.cpu00.dcache.overall_misses::cpu00.data         2667                       # number of overall misses
system.cpu00.dcache.overall_misses::total         2667                       # number of overall misses
system.cpu00.dcache.ReadReq_miss_latency::cpu00.data      7917990                       # number of ReadReq miss cycles
system.cpu00.dcache.ReadReq_miss_latency::total      7917990                       # number of ReadReq miss cycles
system.cpu00.dcache.WriteReq_miss_latency::cpu00.data    123456500                       # number of WriteReq miss cycles
system.cpu00.dcache.WriteReq_miss_latency::total    123456500                       # number of WriteReq miss cycles
system.cpu00.dcache.LoadLockedReq_miss_latency::cpu00.data       133500                       # number of LoadLockedReq miss cycles
system.cpu00.dcache.LoadLockedReq_miss_latency::total       133500                       # number of LoadLockedReq miss cycles
system.cpu00.dcache.demand_miss_latency::cpu00.data    131374490                       # number of demand (read+write) miss cycles
system.cpu00.dcache.demand_miss_latency::total    131374490                       # number of demand (read+write) miss cycles
system.cpu00.dcache.overall_miss_latency::cpu00.data    131374490                       # number of overall miss cycles
system.cpu00.dcache.overall_miss_latency::total    131374490                       # number of overall miss cycles
system.cpu00.dcache.ReadReq_accesses::cpu00.data     20000269                       # number of ReadReq accesses(hits+misses)
system.cpu00.dcache.ReadReq_accesses::total     20000269                       # number of ReadReq accesses(hits+misses)
system.cpu00.dcache.WriteReq_accesses::cpu00.data     20001676                       # number of WriteReq accesses(hits+misses)
system.cpu00.dcache.WriteReq_accesses::total     20001676                       # number of WriteReq accesses(hits+misses)
system.cpu00.dcache.LoadLockedReq_accesses::cpu00.data           23                       # number of LoadLockedReq accesses(hits+misses)
system.cpu00.dcache.LoadLockedReq_accesses::total           23                       # number of LoadLockedReq accesses(hits+misses)
system.cpu00.dcache.StoreCondReq_accesses::cpu00.data           23                       # number of StoreCondReq accesses(hits+misses)
system.cpu00.dcache.StoreCondReq_accesses::total           23                       # number of StoreCondReq accesses(hits+misses)
system.cpu00.dcache.demand_accesses::cpu00.data     40001945                       # number of demand (read+write) accesses
system.cpu00.dcache.demand_accesses::total     40001945                       # number of demand (read+write) accesses
system.cpu00.dcache.overall_accesses::cpu00.data     40001945                       # number of overall (read+write) accesses
system.cpu00.dcache.overall_accesses::total     40001945                       # number of overall (read+write) accesses
system.cpu00.dcache.ReadReq_miss_rate::cpu00.data     0.000008                       # miss rate for ReadReq accesses
system.cpu00.dcache.ReadReq_miss_rate::total     0.000008                       # miss rate for ReadReq accesses
system.cpu00.dcache.WriteReq_miss_rate::cpu00.data     0.000125                       # miss rate for WriteReq accesses
system.cpu00.dcache.WriteReq_miss_rate::total     0.000125                       # miss rate for WriteReq accesses
system.cpu00.dcache.LoadLockedReq_miss_rate::cpu00.data     0.130435                       # miss rate for LoadLockedReq accesses
system.cpu00.dcache.LoadLockedReq_miss_rate::total     0.130435                       # miss rate for LoadLockedReq accesses
system.cpu00.dcache.demand_miss_rate::cpu00.data     0.000067                       # miss rate for demand accesses
system.cpu00.dcache.demand_miss_rate::total     0.000067                       # miss rate for demand accesses
system.cpu00.dcache.overall_miss_rate::cpu00.data     0.000067                       # miss rate for overall accesses
system.cpu00.dcache.overall_miss_rate::total     0.000067                       # miss rate for overall accesses
[...]
system.tol2bus.pkt_count_system.cpu10.dcache.mem_side::system.l2.cpu_side       940009                       # Packet count per connected master and slave (bytes)
system.tol2bus.pkt_count_system.cpu11.icache.mem_side::system.l2.cpu_side         3794                       # Packet count per connected master and slave (bytes)
system.tol2bus.pkt_count_system.cpu11.dcache.mem_side::system.l2.cpu_side       917463                       # Packet count per connected master and slave (bytes)
system.tol2bus.pkt_count_system.cpu12.icache.mem_side::system.l2.cpu_side         3602                       # Packet count per connected master and slave (bytes)
system.tol2bus.pkt_count_system.cpu12.dcache.mem_side::system.l2.cpu_side       878767                       # Packet count per connected master and slave (bytes)
system.tol2bus.pkt_count_system.cpu13.icache.mem_side::system.l2.cpu_side         3456                       # Packet count per connected master and slave (bytes)
system.tol2bus.pkt_count_system.cpu13.dcache.mem_side::system.l2.cpu_side       626104                       # Packet count per connected master and slave (bytes)
system.tol2bus.pkt_count_system.cpu14.icache.mem_side::system.l2.cpu_side         3461                       # Packet count per connected master and slave (bytes)
system.tol2bus.pkt_count_system.cpu14.dcache.mem_side::system.l2.cpu_side       779021                       # Packet count per connected master and slave (bytes)
system.tol2bus.pkt_count_system.cpu15.icache.mem_side::system.l2.cpu_side         3444                       # Packet count per connected master and slave (bytes)
system.tol2bus.pkt_count_system.cpu15.dcache.mem_side::system.l2.cpu_side       760763                       # Packet count per connected master and slave (bytes)
system.tol2bus.pkt_count_system.cpu16.icache.mem_side::system.l2.cpu_side         3552                       # Packet count per connected master and slave (bytes)
system.tol2bus.pkt_count_system.cpu16.dcache.mem_side::system.l2.cpu_side       602073                       # Packet count per connected master and slave (bytes)
system.tol2bus.pkt_count::total              13839453                       # Packet count per connected master and slave (bytes)
system.tol2bus.pkt_size_system.cpu00.icache.mem_side::system.l2.cpu_side        21888                       # Cumulative packet size per connected master and slave (bytes)
system.tol2bus.pkt_size_system.cpu00.dcache.mem_side::system.l2.cpu_side        22336                       # Cumulative packet size per connected master and slave (bytes)
system.tol2bus.pkt_size_system.cpu01.icache.mem_side::system.l2.cpu_side       118848                       # Cumulative packet size per connected master and slave (bytes)
system.tol2bus.pkt_size_system.cpu01.dcache.mem_side::system.l2.cpu_side       880704                       # Cumulative packet size per connected master and slave (bytes)
system.tol2bus.pkt_size_system.cpu02.icache.mem_side::system.l2.cpu_side       116416                       # Cumulative packet size per connected master and slave (bytes)
system.tol2bus.pkt_size_system.cpu02.dcache.mem_side::system.l2.cpu_side       728576                       # Cumulative packet size per connected master and slave (bytes)
system.tol2bus.pkt_size_system.cpu03.icache.mem_side::system.l2.cpu_side       121280                       # Cumulative packet size per connected master and slave (bytes)
system.tol2bus.pkt_size_system.cpu03.dcache.mem_side::system.l2.cpu_side       759424                       # Cumulative packet size per connected master and slave (bytes)
system.tol2bus.pkt_size_system.cpu04.icache.mem_side::system.l2.cpu_side       121856                       # Cumulative packet size per connected master and slave (bytes)
system.tol2bus.pkt_size_system.cpu04.dcache.mem_side::system.l2.cpu_side       777216                       # Cumulative packet size per connected master and slave (bytes)
system.tol2bus.pkt_size_system.cpu05.icache.mem_side::system.l2.cpu_side       123264                       # Cumulative packet size per connected master and slave (bytes)
system.tol2bus.pkt_size_system.cpu05.dcache.mem_side::system.l2.cpu_side       758336                       # Cumulative packet size per connected master and slave (bytes)
system.tol2bus.pkt_size_system.cpu06.icache.mem_side::system.l2.cpu_side       122304                       # Cumulative packet size per connected master and slave (bytes)
system.tol2bus.pkt_size_system.cpu06.dcache.mem_side::system.l2.cpu_side       816384                       # Cumulative packet size per connected master and slave (bytes)
system.tol2bus.pkt_size_system.cpu07.icache.mem_side::system.l2.cpu_side       120960                       # Cumulative packet size per connected master and slave (bytes)
system.tol2bus.pkt_size_system.cpu07.dcache.mem_side::system.l2.cpu_side       820992                       # Cumulative packet size per connected master and slave (bytes)
system.tol2bus.pkt_size_system.cpu08.icache.mem_side::system.l2.cpu_side       119232                       # Cumulative packet size per connected master and slave (bytes)
system.tol2bus.pkt_size_system.cpu08.dcache.mem_side::system.l2.cpu_side       763136                       # Cumulative packet size per connected master and slave (bytes)
system.tol2bus.pkt_size_system.cpu09.icache.mem_side::system.l2.cpu_side       117632                       # Cumulative packet size per connected master and slave (bytes)
system.tol2bus.pkt_size_system.cpu09.dcache.mem_side::system.l2.cpu_side       836672                       # Cumulative packet size per connected master and slave (bytes)
system.tol2bus.pkt_size_system.cpu10.icache.mem_side::system.l2.cpu_side       115776                       # Cumulative packet size per connected master and slave (bytes)
system.tol2bus.pkt_size_system.cpu10.dcache.mem_side::system.l2.cpu_side       829312                       # Cumulative packet size per connected master and slave (bytes)
system.tol2bus.pkt_size_system.cpu11.icache.mem_side::system.l2.cpu_side       121408                       # Cumulative packet size per connected master and slave (bytes)
system.tol2bus.pkt_size_system.cpu11.dcache.mem_side::system.l2.cpu_side       831744                       # Cumulative packet size per connected master and slave (bytes)
system.tol2bus.pkt_size_system.cpu12.icache.mem_side::system.l2.cpu_side       115264                       # Cumulative packet size per connected master and slave (bytes)
system.tol2bus.pkt_size_system.cpu12.dcache.mem_side::system.l2.cpu_side       920128                       # Cumulative packet size per connected master and slave (bytes)
system.tol2bus.pkt_size_system.cpu13.icache.mem_side::system.l2.cpu_side       110592                       # Cumulative packet size per connected master and slave (bytes)
system.tol2bus.pkt_size_system.cpu13.dcache.mem_side::system.l2.cpu_side       771136                       # Cumulative packet size per connected master and slave (bytes)
system.tol2bus.pkt_size_system.cpu14.icache.mem_side::system.l2.cpu_side       110720                       # Cumulative packet size per connected master and slave (bytes)
system.tol2bus.pkt_size_system.cpu14.dcache.mem_side::system.l2.cpu_side       783552                       # Cumulative packet size per connected master and slave (bytes)
system.tol2bus.pkt_size_system.cpu15.icache.mem_side::system.l2.cpu_side       110208                       # Cumulative packet size per connected master and slave (bytes)
system.tol2bus.pkt_size_system.cpu15.dcache.mem_side::system.l2.cpu_side       811584                       # Cumulative packet size per connected master and slave (bytes)
system.tol2bus.pkt_size_system.cpu16.icache.mem_side::system.l2.cpu_side       113664                       # Cumulative packet size per connected master and slave (bytes)
system.tol2bus.pkt_size_system.cpu16.dcache.mem_side::system.l2.cpu_side       777664                       # Cumulative packet size per connected master and slave (bytes)
system.tol2bus.pkt_size::total               14790208                       # Cumulative packet size per connected master and slave (bytes)
system.tol2bus.snoops                        12675161                       # Total snoops (count)
system.tol2bus.snoop_fanout::samples         13262633                       # Request fanout histogram
system.tol2bus.snoop_fanout::mean                  33                       # Request fanout histogram
system.tol2bus.snoop_fanout::stdev                  0                       # Request fanout histogram
system.tol2bus.snoop_fanout::underflows             0      0.00%      0.00% # Request fanout histogram
system.tol2bus.snoop_fanout::0                      0      0.00%      0.00% # Request fanout histogram
system.tol2bus.snoop_fanout::1                      0      0.00%      0.00% # Request fanout histogram
system.tol2bus.snoop_fanout::2                      0      0.00%      0.00% # Request fanout histogram
system.tol2bus.snoop_fanout::3                      0      0.00%      0.00% # Request fanout histogram
system.tol2bus.snoop_fanout::4                      0      0.00%      0.00% # Request fanout histogram
system.tol2bus.snoop_fanout::5                      0      0.00%      0.00% # Request fanout histogram
system.tol2bus.snoop_fanout::6                      0      0.00%      0.00% # Request fanout histogram
system.tol2bus.snoop_fanout::7                      0      0.00%      0.00% # Request fanout histogram
system.tol2bus.snoop_fanout::8                      0      0.00%      0.00% # Request fanout histogram
system.tol2bus.snoop_fanout::9                      0      0.00%      0.00% # Request fanout histogram
system.tol2bus.snoop_fanout::10                     0      0.00%      0.00% # Request fanout histogram
system.tol2bus.snoop_fanout::11                     0      0.00%      0.00% # Request fanout histogram
system.tol2bus.snoop_fanout::12                     0      0.00%      0.00% # Request fanout histogram
system.tol2bus.snoop_fanout::13                     0      0.00%      0.00% # Request fanout histogram
system.tol2bus.snoop_fanout::14                     0      0.00%      0.00% # Request fanout histogram
system.tol2bus.snoop_fanout::15                     0      0.00%      0.00% # Request fanout histogram
system.tol2bus.snoop_fanout::16                     0      0.00%      0.00% # Request fanout histogram
system.tol2bus.snoop_fanout::17                     0      0.00%      0.00% # Request fanout histogram
system.tol2bus.snoop_fanout::18                     0      0.00%      0.00% # Request fanout histogram
system.tol2bus.snoop_fanout::19                     0      0.00%      0.00% # Request fanout histogram
system.tol2bus.snoop_fanout::20                     0      0.00%      0.00% # Request fanout histogram
system.tol2bus.snoop_fanout::21                     0      0.00%      0.00% # Request fanout histogram
system.tol2bus.snoop_fanout::22                     0      0.00%      0.00% # Request fanout histogram
system.tol2bus.snoop_fanout::23                     0      0.00%      0.00% # Request fanout histogram
system.tol2bus.snoop_fanout::24                     0      0.00%      0.00% # Request fanout histogram
system.tol2bus.snoop_fanout::25                     0      0.00%      0.00% # Request fanout histogram
system.tol2bus.snoop_fanout::26                     0      0.00%      0.00% # Request fanout histogram
system.tol2bus.snoop_fanout::27                     0      0.00%      0.00% # Request fanout histogram
system.tol2bus.snoop_fanout::28                     0      0.00%      0.00% # Request fanout histogram
system.tol2bus.snoop_fanout::29                     0      0.00%      0.00% # Request fanout histogram
system.tol2bus.snoop_fanout::30                     0      0.00%      0.00% # Request fanout histogram
system.tol2bus.snoop_fanout::31                     0      0.00%      0.00% # Request fanout histogram
system.tol2bus.snoop_fanout::32                     0      0.00%      0.00% # Request fanout histogram
system.tol2bus.snoop_fanout::33              13262633    100.00%    100.00% # Request fanout histogram
system.tol2bus.snoop_fanout::34                     0      0.00%    100.00% # Request fanout histogram
system.tol2bus.snoop_fanout::overflows              0      0.00%    100.00% # Request fanout histogram
system.tol2bus.snoop_fanout::min_value             33                       # Request fanout histogram
system.tol2bus.snoop_fanout::max_value             33                       # Request fanout histogram
system.tol2bus.snoop_fanout::total           13262633                       # Request fanout histogram
system.tol2bus.reqLayer0.occupancy         6701262246                       # Layer occupancy (ticks)
system.tol2bus.reqLayer0.utilization             16.7                       # Layer utilization (%)
system.tol2bus.respLayer0.occupancy            513998                       # Layer occupancy (ticks)
system.tol2bus.respLayer0.utilization             0.0                       # Layer utilization (%)
system.tol2bus.respLayer1.occupancy            491494                       # Layer occupancy (ticks)
system.tol2bus.respLayer1.utilization             0.0                       # Layer utilization (%)
system.tol2bus.respLayer4.occupancy           2813866                       # Layer occupancy (ticks)
system.tol2bus.respLayer4.utilization             0.0                       # Layer utilization (%)
system.tol2bus.respLayer5.occupancy        1334360564                       # Layer occupancy (ticks)
system.tol2bus.respLayer5.utilization             3.3                       # Layer utilization (%)
system.tol2bus.respLayer8.occupancy           2780297                       # Layer occupancy (ticks)
system.tol2bus.respLayer8.utilization             0.0                       # Layer utilization (%)
system.tol2bus.respLayer9.occupancy        1414527207                       # Layer occupancy (ticks)
system.tol2bus.respLayer9.utilization             3.5                       # Layer utilization (%)
system.tol2bus.respLayer12.occupancy          2882351                       # Layer occupancy (ticks)
system.tol2bus.respLayer12.utilization            0.0                       # Layer utilization (%)
system.tol2bus.respLayer13.occupancy       1537248629                       # Layer occupancy (ticks)
system.tol2bus.respLayer13.utilization            3.8                       # Layer utilization (%)
system.tol2bus.respLayer16.occupancy          2887383                       # Layer occupancy (ticks)
system.tol2bus.respLayer16.utilization            0.0                       # Layer utilization (%)
system.tol2bus.respLayer17.occupancy       1509589765                       # Layer occupancy (ticks)
system.tol2bus.respLayer17.utilization            3.8                       # Layer utilization (%)
system.tol2bus.respLayer20.occupancy          2892492                       # Layer occupancy (ticks)
system.tol2bus.respLayer20.utilization            0.0                       # Layer utilization (%)
system.tol2bus.respLayer21.occupancy       1526250431                       # Layer occupancy (ticks)
system.tol2bus.respLayer21.utilization            3.8                       # Layer utilization (%)
system.tol2bus.respLayer24.occupancy          2875478                       # Layer occupancy (ticks)
system.tol2bus.respLayer24.utilization            0.0                       # Layer utilization (%)
system.tol2bus.respLayer25.occupancy       1451173286                       # Layer occupancy (ticks)
system.tol2bus.respLayer25.utilization            3.6                       # Layer utilization (%)
system.tol2bus.respLayer28.occupancy          2849428                       # Layer occupancy (ticks)
system.tol2bus.respLayer28.utilization            0.0                       # Layer utilization (%)
system.tol2bus.respLayer29.occupancy       1473671677                       # Layer occupancy (ticks)
system.tol2bus.respLayer29.utilization            3.7                       # Layer utilization (%)
system.tol2bus.respLayer32.occupancy          2798989                       # Layer occupancy (ticks)
system.tol2bus.respLayer32.utilization            0.0                       # Layer utilization (%)
system.tol2bus.respLayer33.occupancy       1547657730                       # Layer occupancy (ticks)
system.tol2bus.respLayer33.utilization            3.9                       # Layer utilization (%)
system.tol2bus.respLayer36.occupancy          2761981                       # Layer occupancy (ticks)
system.tol2bus.respLayer36.utilization            0.0                       # Layer utilization (%)
system.tol2bus.respLayer37.occupancy       1538136189                       # Layer occupancy (ticks)
system.tol2bus.respLayer37.utilization            3.8                       # Layer utilization (%)
system.tol2bus.respLayer40.occupancy          2715497                       # Layer occupancy (ticks)
system.tol2bus.respLayer40.utilization            0.0                       # Layer utilization (%)
system.tol2bus.respLayer41.occupancy       1512210077                       # Layer occupancy (ticks)
system.tol2bus.respLayer41.utilization            3.8                       # Layer utilization (%)
system.tol2bus.respLayer44.occupancy          2846994                       # Layer occupancy (ticks)
system.tol2bus.respLayer44.utilization            0.0                       # Layer utilization (%)
system.tol2bus.respLayer45.occupancy       1469095876                       # Layer occupancy (ticks)
system.tol2bus.respLayer45.utilization            3.7                       # Layer utilization (%)
system.tol2bus.respLayer48.occupancy          2702498                       # Layer occupancy (ticks)
system.tol2bus.respLayer48.utilization            0.0                       # Layer utilization (%)
system.tol2bus.respLayer49.occupancy       1386700518                       # Layer occupancy (ticks)
system.tol2bus.respLayer49.utilization            3.5                       # Layer utilization (%)
system.tol2bus.respLayer52.occupancy          2594995                       # Layer occupancy (ticks)
system.tol2bus.respLayer52.utilization            0.0                       # Layer utilization (%)
system.tol2bus.respLayer53.occupancy        954873098                       # Layer occupancy (ticks)
system.tol2bus.respLayer53.utilization            2.4                       # Layer utilization (%)
system.tol2bus.respLayer56.occupancy          2607424                       # Layer occupancy (ticks)
system.tol2bus.respLayer56.utilization            0.0                       # Layer utilization (%)
system.tol2bus.respLayer57.occupancy       1221031680                       # Layer occupancy (ticks)
system.tol2bus.respLayer57.utilization            3.1                       # Layer utilization (%)
system.tol2bus.respLayer60.occupancy          2592450                       # Layer occupancy (ticks)
system.tol2bus.respLayer60.utilization            0.0                       # Layer utilization (%)
system.tol2bus.respLayer61.occupancy       1186312822                       # Layer occupancy (ticks)
system.tol2bus.respLayer61.utilization            3.0                       # Layer utilization (%)
system.tol2bus.respLayer64.occupancy          2664000                       # Layer occupancy (ticks)
system.tol2bus.respLayer64.utilization            0.0                       # Layer utilization (%)
system.tol2bus.respLayer65.occupancy        911659251                       # Layer occupancy (ticks)
system.tol2bus.respLayer65.utilization            2.3                       # Layer utilization (%)

---------- End Simulation Statistics   ----------
