
---------- Begin Simulation Statistics ----------
sim_seconds                                  0.018432                       # Number of seconds simulated
sim_ticks                                 18431695000                       # Number of ticks simulated
final_tick                                18431695000                       # Number of ticks from beginning of simulation (restored from checkpoints and never reset)
sim_freq                                 1000000000000                       # Frequency of simulated ticks
host_inst_rate                                 223827                       # Simulator instruction rate (inst/s)
host_op_rate                                   231857                       # Simulator op (including micro ops) rate (op/s)
host_tick_rate                               65733794                       # Simulator tick rate (ticks/s)
host_mem_usage                                 678396                       # Number of bytes of host memory used
host_seconds                                   280.40                       # Real time elapsed on the host
sim_insts                                    62760962                       # Number of instructions simulated
sim_ops                                      65012565                       # Number of ops (including micro ops) simulated
system.voltage_domain.voltage                       1                       # Voltage in Volts
system.clk_domain.clock                          1000                       # Clock period in ticks
system.physmem.bytes_read::cpu0.inst            22464                       # Number of bytes read from this memory
system.physmem.bytes_read::cpu0.data            17472                       # Number of bytes read from this memory
system.physmem.bytes_read::cpu1.inst            16704                       # Number of bytes read from this memory
system.physmem.bytes_read::cpu1.data            54848                       # Number of bytes read from this memory
system.physmem.bytes_read::total               111488                       # Number of bytes read from this memory
system.physmem.bytes_inst_read::cpu0.inst        22464                       # Number of instructions bytes read from this memory
system.physmem.bytes_inst_read::cpu1.inst        16704                       # Number of instructions bytes read from this memory
system.physmem.bytes_inst_read::total           39168                       # Number of instructions bytes read from this memory
system.physmem.num_reads::cpu0.inst               351                       # Number of read requests responded to by this memory
system.physmem.num_reads::cpu0.data               273                       # Number of read requests responded to by this memory
system.physmem.num_reads::cpu1.inst               261                       # Number of read requests responded to by this memory
system.physmem.num_reads::cpu1.data               857                       # Number of read requests responded to by this memory
system.physmem.num_reads::total                  1742                       # Number of read requests responded to by this memory
system.physmem.bw_read::cpu0.inst             1218770                       # Total read bandwidth from this memory (bytes/s)
system.physmem.bw_read::cpu0.data              947932                       # Total read bandwidth from this memory (bytes/s)
system.physmem.bw_read::cpu1.inst              906265                       # Total read bandwidth from this memory (bytes/s)
system.physmem.bw_read::cpu1.data             2975744                       # Total read bandwidth from this memory (bytes/s)
system.physmem.bw_read::total                 6048711                       # Total read bandwidth from this memory (bytes/s)
system.physmem.bw_inst_read::cpu0.inst        1218770                       # Instruction read bandwidth from this memory (bytes/s)
system.physmem.bw_inst_read::cpu1.inst         906265                       # Instruction read bandwidth from this memory (bytes/s)
system.physmem.bw_inst_read::total            2125035                       # Instruction read bandwidth from this memory (bytes/s)
system.physmem.bw_total::cpu0.inst            1218770                       # Total bandwidth to/from this memory (bytes/s)
system.physmem.bw_total::cpu0.data             947932                       # Total bandwidth to/from this memory (bytes/s)
system.physmem.bw_total::cpu1.inst             906265                       # Total bandwidth to/from this memory (bytes/s)
system.physmem.bw_total::cpu1.data            2975744                       # Total bandwidth to/from this memory (bytes/s)
system.physmem.bw_total::total                6048711                       # Total bandwidth to/from this memory (bytes/s)
system.cpu0.branchPred.lookups                9204940                       # Number of BP lookups
system.cpu0.branchPred.condPredicted          9204091                       # Number of conditional branches predicted
system.cpu0.branchPred.condIncorrect              569                       # Number of conditional branches incorrect
system.cpu0.branchPred.BTBLookups             9203349                       # Number of BTB lookups
system.cpu0.branchPred.BTBHits                9202969                       # Number of BTB hits
system.cpu0.branchPred.BTBCorrect                   0                       # Number of correct BTB predictions (this stat may not work properly.
system.cpu0.branchPred.BTBHitPct            99.995871                       # BTB Hit Percentage
system.cpu0.branchPred.usedRAS                    261                       # Number of times the RAS was used to get a target.
system.cpu0.branchPred.RASInCorrect                55                       # Number of incorrect RAS predictions.
system.cpu0.dstage2_mmu.stage2_tlb.walker.walks            0                       # Table walker walks requested
system.cpu0.dstage2_mmu.stage2_tlb.walker.walkRequestOrigin_Requested::Data            0                       # Table walker requests started/completed, data/inst
system.cpu0.dstage2_mmu.stage2_tlb.walker.walkRequestOrigin_Requested::Inst            0                       # Table walker requests started/completed, data/inst
system.cpu0.dstage2_mmu.stage2_tlb.walker.walkRequestOrigin_Requested::total            0                       # Table walker requests started/completed, data/inst
system.cpu0.dstage2_mmu.stage2_tlb.walker.walkRequestOrigin_Completed::Data            0                       # Table walker requests started/completed, data/inst
system.cpu0.dstage2_mmu.stage2_tlb.walker.walkRequestOrigin_Completed::Inst            0                       # Table walker requests started/completed, data/inst
system.cpu0.dstage2_mmu.stage2_tlb.walker.walkRequestOrigin_Completed::total            0                       # Table walker requests started/completed, data/inst
system.cpu0.dstage2_mmu.stage2_tlb.walker.walkRequestOrigin::total            0                       # Table walker requests started/completed, data/inst
system.cpu0.dstage2_mmu.stage2_tlb.inst_hits            0                       # ITB inst hits
system.cpu0.dstage2_mmu.stage2_tlb.inst_misses            0                       # ITB inst misses
system.cpu0.dstage2_mmu.stage2_tlb.read_hits            0                       # DTB read hits
system.cpu0.dstage2_mmu.stage2_tlb.read_misses            0                       # DTB read misses
system.cpu0.dstage2_mmu.stage2_tlb.write_hits            0                       # DTB write hits
system.cpu0.dstage2_mmu.stage2_tlb.write_misses            0                       # DTB write misses
system.cpu0.dstage2_mmu.stage2_tlb.flush_tlb            0                       # Number of times complete TLB was flushed
system.cpu0.dstage2_mmu.stage2_tlb.flush_tlb_mva            0                       # Number of times TLB was flushed by MVA
system.cpu0.dstage2_mmu.stage2_tlb.flush_tlb_mva_asid            0                       # Number of times TLB was flushed by MVA & ASID
system.cpu0.dstage2_mmu.stage2_tlb.flush_tlb_asid            0                       # Number of times TLB was flushed by ASID
system.cpu0.dstage2_mmu.stage2_tlb.flush_entries            0                       # Number of entries that have been flushed from TLB
system.cpu0.dstage2_mmu.stage2_tlb.align_faults            0                       # Number of TLB faults due to alignment restrictions
system.cpu0.dstage2_mmu.stage2_tlb.prefetch_faults            0                       # Number of TLB faults due to prefetch
system.cpu0.dstage2_mmu.stage2_tlb.domain_faults            0                       # Number of TLB faults due to domain restrictions
system.cpu0.dstage2_mmu.stage2_tlb.perms_faults            0                       # Number of TLB faults due to permissions restrictions
system.cpu0.dstage2_mmu.stage2_tlb.read_accesses            0                       # DTB read accesses
system.cpu0.dstage2_mmu.stage2_tlb.write_accesses            0                       # DTB write accesses
system.cpu0.dstage2_mmu.stage2_tlb.inst_accesses            0                       # ITB inst accesses
system.cpu0.dstage2_mmu.stage2_tlb.hits             0                       # DTB hits
system.cpu0.dstage2_mmu.stage2_tlb.misses            0                       # DTB misses
system.cpu0.dstage2_mmu.stage2_tlb.accesses            0                       # DTB accesses
system.cpu0.dtb.walker.walks                        0                       # Table walker walks requested
system.cpu0.dtb.walker.walkRequestOrigin_Requested::Data            0                       # Table walker requests started/completed, data/inst
system.cpu0.dtb.walker.walkRequestOrigin_Requested::Inst            0                       # Table walker requests started/completed, data/inst
system.cpu0.dtb.walker.walkRequestOrigin_Requested::total            0                       # Table walker requests started/completed, data/inst
system.cpu0.dtb.walker.walkRequestOrigin_Completed::Data            0                       # Table walker requests started/completed, data/inst
system.cpu0.dtb.walker.walkRequestOrigin_Completed::Inst            0                       # Table walker requests started/completed, data/inst
system.cpu0.dtb.walker.walkRequestOrigin_Completed::total            0                       # Table walker requests started/completed, data/inst
system.cpu0.dtb.walker.walkRequestOrigin::total            0                       # Table walker requests started/completed, data/inst
system.cpu0.dtb.inst_hits                           0                       # ITB inst hits
system.cpu0.dtb.inst_misses                         0                       # ITB inst misses
system.cpu0.dtb.read_hits                           0                       # DTB read hits
system.cpu0.dtb.read_misses                         0                       # DTB read misses
system.cpu0.dtb.write_hits                          0                       # DTB write hits
system.cpu0.dtb.write_misses                        0                       # DTB write misses
system.cpu0.dtb.flush_tlb                           0                       # Number of times complete TLB was flushed
system.cpu0.dtb.flush_tlb_mva                       0                       # Number of times TLB was flushed by MVA
system.cpu0.dtb.flush_tlb_mva_asid                  0                       # Number of times TLB was flushed by MVA & ASID
system.cpu0.dtb.flush_tlb_asid                      0                       # Number of times TLB was flushed by ASID
system.cpu0.dtb.flush_entries                       0                       # Number of entries that have been flushed from TLB
system.cpu0.dtb.align_faults                        0                       # Number of TLB faults due to alignment restrictions
system.cpu0.dtb.prefetch_faults                     0                       # Number of TLB faults due to prefetch
system.cpu0.dtb.domain_faults                       0                       # Number of TLB faults due to domain restrictions
system.cpu0.dtb.perms_faults                        0                       # Number of TLB faults due to permissions restrictions
system.cpu0.dtb.read_accesses                       0                       # DTB read accesses
system.cpu0.dtb.write_accesses                      0                       # DTB write accesses
system.cpu0.dtb.inst_accesses                       0                       # ITB inst accesses
system.cpu0.dtb.hits                                0                       # DTB hits
system.cpu0.dtb.misses                              0                       # DTB misses
system.cpu0.dtb.accesses                            0                       # DTB accesses
system.cpu0.istage2_mmu.stage2_tlb.walker.walks            0                       # Table walker walks requested
system.cpu0.istage2_mmu.stage2_tlb.walker.walkRequestOrigin_Requested::Data            0                       # Table walker requests started/completed, data/inst
system.cpu0.istage2_mmu.stage2_tlb.walker.walkRequestOrigin_Requested::Inst            0                       # Table walker requests started/completed, data/inst
system.cpu0.istage2_mmu.stage2_tlb.walker.walkRequestOrigin_Requested::total            0                       # Table walker requests started/completed, data/inst
system.cpu0.istage2_mmu.stage2_tlb.walker.walkRequestOrigin_Completed::Data            0                       # Table walker requests started/completed, data/inst
system.cpu0.istage2_mmu.stage2_tlb.walker.walkRequestOrigin_Completed::Inst            0                       # Table walker requests started/completed, data/inst
system.cpu0.istage2_mmu.stage2_tlb.walker.walkRequestOrigin_Completed::total            0                       # Table walker requests started/completed, data/inst
system.cpu0.istage2_mmu.stage2_tlb.walker.walkRequestOrigin::total            0                       # Table walker requests started/completed, data/inst
system.cpu0.istage2_mmu.stage2_tlb.inst_hits            0                       # ITB inst hits
system.cpu0.istage2_mmu.stage2_tlb.inst_misses            0                       # ITB inst misses
system.cpu0.istage2_mmu.stage2_tlb.read_hits            0                       # DTB read hits
system.cpu0.istage2_mmu.stage2_tlb.read_misses            0                       # DTB read misses
system.cpu0.istage2_mmu.stage2_tlb.write_hits            0                       # DTB write hits
system.cpu0.istage2_mmu.stage2_tlb.write_misses            0                       # DTB write misses
system.cpu0.istage2_mmu.stage2_tlb.flush_tlb            0                       # Number of times complete TLB was flushed
system.cpu0.istage2_mmu.stage2_tlb.flush_tlb_mva            0                       # Number of times TLB was flushed by MVA
system.cpu0.istage2_mmu.stage2_tlb.flush_tlb_mva_asid            0                       # Number of times TLB was flushed by MVA & ASID
system.cpu0.istage2_mmu.stage2_tlb.flush_tlb_asid            0                       # Number of times TLB was flushed by ASID
system.cpu0.istage2_mmu.stage2_tlb.flush_entries            0                       # Number of entries that have been flushed from TLB
system.cpu0.istage2_mmu.stage2_tlb.align_faults            0                       # Number of TLB faults due to alignment restrictions
system.cpu0.istage2_mmu.stage2_tlb.prefetch_faults            0                       # Number of TLB faults due to prefetch
system.cpu0.istage2_mmu.stage2_tlb.domain_faults            0                       # Number of TLB faults due to domain restrictions
system.cpu0.istage2_mmu.stage2_tlb.perms_faults            0                       # Number of TLB faults due to permissions restrictions
system.cpu0.istage2_mmu.stage2_tlb.read_accesses            0                       # DTB read accesses
system.cpu0.istage2_mmu.stage2_tlb.write_accesses            0                       # DTB write accesses
system.cpu0.istage2_mmu.stage2_tlb.inst_accesses            0                       # ITB inst accesses
system.cpu0.istage2_mmu.stage2_tlb.hits             0                       # DTB hits
system.cpu0.istage2_mmu.stage2_tlb.misses            0                       # DTB misses
system.cpu0.istage2_mmu.stage2_tlb.accesses            0                       # DTB accesses
system.cpu0.itb.walker.walks                        0                       # Table walker walks requested
system.cpu0.itb.walker.walkRequestOrigin_Requested::Data            0                       # Table walker requests started/completed, data/inst
system.cpu0.itb.walker.walkRequestOrigin_Requested::Inst            0                       # Table walker requests started/completed, data/inst
system.cpu0.itb.walker.walkRequestOrigin_Requested::total            0                       # Table walker requests started/completed, data/inst
system.cpu0.itb.walker.walkRequestOrigin_Completed::Data            0                       # Table walker requests started/completed, data/inst
system.cpu0.itb.walker.walkRequestOrigin_Completed::Inst            0                       # Table walker requests started/completed, data/inst
system.cpu0.itb.walker.walkRequestOrigin_Completed::total            0                       # Table walker requests started/completed, data/inst
system.cpu0.itb.walker.walkRequestOrigin::total            0                       # Table walker requests started/completed, data/inst
system.cpu0.itb.inst_hits                           0                       # ITB inst hits
system.cpu0.itb.inst_misses                         0                       # ITB inst misses
system.cpu0.itb.read_hits                           0                       # DTB read hits
system.cpu0.itb.read_misses                         0                       # DTB read misses
system.cpu0.itb.write_hits                          0                       # DTB write hits
system.cpu0.itb.write_misses                        0                       # DTB write misses
system.cpu0.itb.flush_tlb                           0                       # Number of times complete TLB was flushed
system.cpu0.itb.flush_tlb_mva                       0                       # Number of times TLB was flushed by MVA
system.cpu0.itb.flush_tlb_mva_asid                  0                       # Number of times TLB was flushed by MVA & ASID
system.cpu0.itb.flush_tlb_asid                      0                       # Number of times TLB was flushed by ASID
system.cpu0.itb.flush_entries                       0                       # Number of entries that have been flushed from TLB
system.cpu0.itb.align_faults                        0                       # Number of TLB faults due to alignment restrictions
system.cpu0.itb.prefetch_faults                     0                       # Number of TLB faults due to prefetch
system.cpu0.itb.domain_faults                       0                       # Number of TLB faults due to domain restrictions
system.cpu0.itb.perms_faults                        0                       # Number of TLB faults due to permissions restrictions
system.cpu0.itb.read_accesses                       0                       # DTB read accesses
system.cpu0.itb.write_accesses                      0                       # DTB write accesses
system.cpu0.itb.inst_accesses                       0                       # ITB inst accesses
system.cpu0.itb.hits                                0                       # DTB hits
system.cpu0.itb.misses                              0                       # DTB misses
system.cpu0.itb.accesses                            0                       # DTB accesses
system.cpu0.workload.num_syscalls                  28                       # Number of system calls
system.cpu0.numCycles                        18431696                       # number of cpu cycles simulated
system.cpu0.numWorkItemsStarted                     0                       # number of work items this cpu started
system.cpu0.numWorkItemsCompleted                   0                       # number of work items this cpu completed
system.cpu0.fetch.icacheStallCycles              8125                       # Number of cycles fetch is stalled on an Icache miss
system.cpu0.fetch.Insts                      46025552                       # Number of instructions fetch has processed
system.cpu0.fetch.Branches                    9204940                       # Number of branches that fetch encountered
system.cpu0.fetch.predictedBranches           9203230                       # Number of branches that fetch has predicted taken
system.cpu0.fetch.Cycles                     18414563                       # Number of cycles fetch has run and was not squashing or blocked
system.cpu0.fetch.SquashCycles                   1253                       # Number of cycles fetch has spent squashing
system.cpu0.fetch.PendingTrapStallCycles          148                       # Number of stall cycles due to pending traps
system.cpu0.fetch.CacheLines                     1875                       # Number of cache lines fetched
system.cpu0.fetch.IcacheSquashes                  248                       # Number of outstanding Icache misses that were squashed
system.cpu0.fetch.rateDist::samples          18423462                       # Number of instructions fetched each cycle (Total)
system.cpu0.fetch.rateDist::mean             2.498432                       # Number of instructions fetched each cycle (Total)
system.cpu0.fetch.rateDist::stdev            0.504019                       # Number of instructions fetched each cycle (Total)
system.cpu0.fetch.rateDist::underflows              0      0.00%      0.00% # Number of instructions fetched each cycle (Total)
system.cpu0.fetch.rateDist::0                   12190      0.07%      0.07% # Number of instructions fetched each cycle (Total)
system.cpu0.fetch.rateDist::1                     627      0.00%      0.07% # Number of instructions fetched each cycle (Total)
system.cpu0.fetch.rateDist::2                 9202799     49.95%     50.02% # Number of instructions fetched each cycle (Total)
system.cpu0.fetch.rateDist::3                 9207846     49.98%    100.00% # Number of instructions fetched each cycle (Total)
system.cpu0.fetch.rateDist::overflows               0      0.00%    100.00% # Number of instructions fetched each cycle (Total)
system.cpu0.fetch.rateDist::min_value               0                       # Number of instructions fetched each cycle (Total)
system.cpu0.fetch.rateDist::max_value               3                       # Number of instructions fetched each cycle (Total)
system.cpu0.fetch.rateDist::total            18423462                       # Number of instructions fetched each cycle (Total)
system.cpu0.fetch.branchRate                 0.499408                       # Number of branch fetches per cycle
system.cpu0.fetch.rate                       2.497087                       # Number of inst fetches per cycle
system.cpu0.decode.IdleCycles                    7679                       # Number of cycles decode is idle
system.cpu0.decode.BlockedCycles                 4940                       # Number of cycles decode is blocked
system.cpu0.decode.RunCycles                 18409764                       # Number of cycles decode is running
system.cpu0.decode.UnblockCycles                  646                       # Number of cycles decode is unblocking
system.cpu0.decode.SquashCycles                   433                       # Number of cycles decode is squashing
system.cpu0.decode.BranchResolved                 352                       # Number of times decode resolved a branch
system.cpu0.decode.BranchMispred                  200                       # Number of times decode detected a branch misprediction
system.cpu0.decode.DecodedInsts              46027535                       # Number of instructions handled by decode
system.cpu0.decode.SquashedInsts                  474                       # Number of squashed instructions handled by decode
system.cpu0.rename.SquashCycles                   433                       # Number of cycles rename is squashing
system.cpu0.rename.IdleCycles                    8242                       # Number of cycles rename is idle
system.cpu0.rename.BlockCycles                    545                       # Number of cycles rename is blocking
system.cpu0.rename.serializeStallCycles          1667                       # count of cycles rename stalled for serializing inst
system.cpu0.rename.RunCycles                 18409739                       # Number of cycles rename is running
system.cpu0.rename.UnblockCycles                 2836                       # Number of cycles rename is unblocking
system.cpu0.rename.RenamedInsts              46026879                       # Number of instructions processed by rename
system.cpu0.rename.IQFullEvents                    16                       # Number of times rename has blocked due to IQ full
system.cpu0.rename.LQFullEvents                    11                       # Number of times rename has blocked due to LQ full
system.cpu0.rename.SQFullEvents                  2671                       # Number of times rename has blocked due to SQ full
system.cpu0.rename.RenamedOperands           46028436                       # Number of destination operands rename has renamed
system.cpu0.rename.RenameLookups            211728330                       # Number of register rename lookups that rename has made
system.cpu0.rename.int_rename_lookups        46032106                       # Number of integer rename lookups
system.cpu0.rename.fp_rename_lookups               16                       # Number of floating rename lookups
system.cpu0.rename.CommittedMaps             46022735                       # Number of HB maps that are committed
system.cpu0.rename.UndoneMaps                    5701                       # Number of HB maps that are undone due to squashing
system.cpu0.rename.serializingInsts                46                       # count of serializing insts renamed
system.cpu0.rename.tempSerializingInsts            45                       # count of temporary serializing insts renamed
system.cpu0.rename.skidInsts                     1194                       # count of insts added to the skid buffer
system.cpu0.memDep0.insertedLoads            18406187                       # Number of loads inserted to the mem dependence unit.
system.cpu0.memDep0.insertedStores            9205630                       # Number of stores inserted to the mem dependence unit.
system.cpu0.memDep0.conflictingLoads          9201845                       # Number of conflicting loads.
system.cpu0.memDep0.conflictingStores         9201819                       # Number of conflicting stores.
system.cpu0.iq.iqInstsAdded                  46025558                       # Number of instructions added to the IQ (excludes non-spec)
system.cpu0.iq.iqNonSpecInstsAdded                 67                       # Number of non-speculative instructions added to the IQ
system.cpu0.iq.iqInstsIssued                 46023979                       # Number of instructions issued
system.cpu0.iq.iqSquashedInstsIssued              167                       # Number of squashed instructions issued
system.cpu0.iq.iqSquashedInstsExamined           3943                       # Number of squashed instructions iterated over during squash; mainly for profiling
system.cpu0.iq.iqSquashedOperandsExamined         9814                       # Number of squashed operands that are examined and possibly removed from graph
system.cpu0.iq.iqSquashedNonSpecRemoved             4                       # Number of squashed non-spec instructions that were removed
system.cpu0.iq.issued_per_cycle::samples     18423462                       # Number of insts issued each cycle
system.cpu0.iq.issued_per_cycle::mean        2.498118                       # Number of insts issued each cycle
system.cpu0.iq.issued_per_cycle::stdev       0.709987                       # Number of insts issued each cycle
system.cpu0.iq.issued_per_cycle::underflows            0      0.00%      0.00% # Number of insts issued each cycle
system.cpu0.iq.issued_per_cycle::0              12419      0.07%      0.07% # Number of insts issued each cycle
system.cpu0.iq.issued_per_cycle::1            2303305     12.50%     12.57% # Number of insts issued each cycle
system.cpu0.iq.issued_per_cycle::2            4602540     24.98%     37.55% # Number of insts issued each cycle
system.cpu0.iq.issued_per_cycle::3           11505198     62.45%    100.00% # Number of insts issued each cycle
system.cpu0.iq.issued_per_cycle::overflows            0      0.00%    100.00% # Number of insts issued each cycle
system.cpu0.iq.issued_per_cycle::min_value            0                       # Number of insts issued each cycle
system.cpu0.iq.issued_per_cycle::max_value            3                       # Number of insts issued each cycle
system.cpu0.iq.issued_per_cycle::total       18423462                       # Number of insts issued each cycle
system.cpu0.iq.fu_full::No_OpClass                  0                       # attempts to use FU when none available
system.cpu0.iq.fu_full::IntAlu                      0                       # attempts to use FU when none available
system.cpu0.iq.fu_full::IntMult                     0                       # attempts to use FU when none available
system.cpu0.iq.fu_full::IntDiv                      0                       # attempts to use FU when none available
system.cpu0.iq.fu_full::FloatAdd                    0                       # attempts to use FU when none available
system.cpu0.iq.fu_full::FloatCmp                    0                       # attempts to use FU when none available
system.cpu0.iq.fu_full::FloatCvt                    0                       # attempts to use FU when none available
system.cpu0.iq.fu_full::FloatMult                   0                       # attempts to use FU when none available
system.cpu0.iq.fu_full::FloatDiv                    0                       # attempts to use FU when none available
system.cpu0.iq.fu_full::FloatSqrt                   0                       # attempts to use FU when none available
system.cpu0.iq.fu_full::SimdAdd                     0                       # attempts to use FU when none available
system.cpu0.iq.fu_full::SimdAddAcc                  0                       # attempts to use FU when none available
system.cpu0.iq.fu_full::SimdAlu                     0                       # attempts to use FU when none available
system.cpu0.iq.fu_full::SimdCmp                     0                       # attempts to use FU when none available
system.cpu0.iq.fu_full::SimdCvt                     0                       # attempts to use FU when none available
system.cpu0.iq.fu_full::SimdMisc                    0                       # attempts to use FU when none available
system.cpu0.iq.fu_full::SimdMult                    0                       # attempts to use FU when none available
system.cpu0.iq.fu_full::SimdMultAcc                 0                       # attempts to use FU when none available
system.cpu0.iq.fu_full::SimdShift                   0                       # attempts to use FU when none available
system.cpu0.iq.fu_full::SimdShiftAcc                0                       # attempts to use FU when none available
system.cpu0.iq.fu_full::SimdSqrt                    0                       # attempts to use FU when none available
system.cpu0.iq.fu_full::SimdFloatAdd                0                       # attempts to use FU when none available
system.cpu0.iq.fu_full::SimdFloatAlu                0                       # attempts to use FU when none available
system.cpu0.iq.fu_full::SimdFloatCmp                0                       # attempts to use FU when none available
system.cpu0.iq.fu_full::SimdFloatCvt                0                       # attempts to use FU when none available
system.cpu0.iq.fu_full::SimdFloatDiv                0                       # attempts to use FU when none available
system.cpu0.iq.fu_full::SimdFloatMisc               0                       # attempts to use FU when none available
system.cpu0.iq.fu_full::SimdFloatMult               0                       # attempts to use FU when none available
system.cpu0.iq.fu_full::SimdFloatMultAcc            0                       # attempts to use FU when none available
system.cpu0.iq.fu_full::SimdFloatSqrt               0                       # attempts to use FU when none available
system.cpu0.iq.fu_full::MemRead                     0                       # attempts to use FU when none available
system.cpu0.iq.fu_full::MemWrite                    0                       # attempts to use FU when none available
system.cpu0.iq.fu_full::IprAccess                   0                       # attempts to use FU when none available
system.cpu0.iq.fu_full::InstPrefetch                0                       # attempts to use FU when none available
system.cpu0.iq.FU_type_0::No_OpClass                0      0.00%      0.00% # Type of FU issued
system.cpu0.iq.FU_type_0::IntAlu             18412630     40.01%     40.01% # Type of FU issued
system.cpu0.iq.FU_type_0::IntMult                   6      0.00%     40.01% # Type of FU issued
system.cpu0.iq.FU_type_0::IntDiv                    0      0.00%     40.01% # Type of FU issued
system.cpu0.iq.FU_type_0::FloatAdd                  0      0.00%     40.01% # Type of FU issued
system.cpu0.iq.FU_type_0::FloatCmp                  0      0.00%     40.01% # Type of FU issued
system.cpu0.iq.FU_type_0::FloatCvt                  0      0.00%     40.01% # Type of FU issued
system.cpu0.iq.FU_type_0::FloatMult                 0      0.00%     40.01% # Type of FU issued
system.cpu0.iq.FU_type_0::FloatDiv                  0      0.00%     40.01% # Type of FU issued
system.cpu0.iq.FU_type_0::FloatSqrt                 0      0.00%     40.01% # Type of FU issued
system.cpu0.iq.FU_type_0::SimdAdd                   0      0.00%     40.01% # Type of FU issued
system.cpu0.iq.FU_type_0::SimdAddAcc                0      0.00%     40.01% # Type of FU issued
system.cpu0.iq.FU_type_0::SimdAlu                   0      0.00%     40.01% # Type of FU issued
system.cpu0.iq.FU_type_0::SimdCmp                   0      0.00%     40.01% # Type of FU issued
system.cpu0.iq.FU_type_0::SimdCvt                   0      0.00%     40.01% # Type of FU issued
system.cpu0.iq.FU_type_0::SimdMisc                  0      0.00%     40.01% # Type of FU issued
system.cpu0.iq.FU_type_0::SimdMult                  0      0.00%     40.01% # Type of FU issued
system.cpu0.iq.FU_type_0::SimdMultAcc               0      0.00%     40.01% # Type of FU issued
system.cpu0.iq.FU_type_0::SimdShift                 0      0.00%     40.01% # Type of FU issued
system.cpu0.iq.FU_type_0::SimdShiftAcc              0      0.00%     40.01% # Type of FU issued
system.cpu0.iq.FU_type_0::SimdSqrt                  0      0.00%     40.01% # Type of FU issued
system.cpu0.iq.FU_type_0::SimdFloatAdd              0      0.00%     40.01% # Type of FU issued
system.cpu0.iq.FU_type_0::SimdFloatAlu              0      0.00%     40.01% # Type of FU issued
system.cpu0.iq.FU_type_0::SimdFloatCmp              0      0.00%     40.01% # Type of FU issued
system.cpu0.iq.FU_type_0::SimdFloatCvt              0      0.00%     40.01% # Type of FU issued
system.cpu0.iq.FU_type_0::SimdFloatDiv              0      0.00%     40.01% # Type of FU issued
system.cpu0.iq.FU_type_0::SimdFloatMisc             3      0.00%     40.01% # Type of FU issued
system.cpu0.iq.FU_type_0::SimdFloatMult             0      0.00%     40.01% # Type of FU issued
system.cpu0.iq.FU_type_0::SimdFloatMultAcc            0      0.00%     40.01% # Type of FU issued
system.cpu0.iq.FU_type_0::SimdFloatSqrt             0      0.00%     40.01% # Type of FU issued
system.cpu0.iq.FU_type_0::MemRead            18405896     39.99%     80.00% # Type of FU issued
system.cpu0.iq.FU_type_0::MemWrite            9205444     20.00%    100.00% # Type of FU issued
system.cpu0.iq.FU_type_0::IprAccess                 0      0.00%    100.00% # Type of FU issued
system.cpu0.iq.FU_type_0::InstPrefetch              0      0.00%    100.00% # Type of FU issued
system.cpu0.iq.FU_type_0::total              46023979                       # Type of FU issued
system.cpu0.iq.rate                          2.497002                       # Inst issue rate
system.cpu0.iq.fu_busy_cnt                          0                       # FU busy when requested
system.cpu0.iq.fu_busy_rate                         0                       # FU busy rate (busy events/executed inst)
system.cpu0.iq.int_inst_queue_reads         110471555                       # Number of integer instruction queue reads
system.cpu0.iq.int_inst_queue_writes         46029599                       # Number of integer instruction queue writes
system.cpu0.iq.int_inst_queue_wakeup_accesses     46023290                       # Number of integer instruction queue wakeup accesses
system.cpu0.iq.fp_inst_queue_reads                 32                       # Number of floating instruction queue reads
system.cpu0.iq.fp_inst_queue_writes                16                       # Number of floating instruction queue writes
system.cpu0.iq.fp_inst_queue_wakeup_accesses           16                       # Number of floating instruction queue wakeup accesses
system.cpu0.iq.int_alu_accesses              46023963                       # Number of integer alu accesses
system.cpu0.iq.fp_alu_accesses                     16                       # Number of floating point alu accesses
system.cpu0.iew.lsq.thread0.forwLoads         9201915                       # Number of loads that had data forwarded from stores
system.cpu0.iew.lsq.thread0.invAddrLoads            0                       # Number of loads ignored due to an invalid address
system.cpu0.iew.lsq.thread0.squashedLoads         1009                       # Number of loads squashed
system.cpu0.iew.lsq.thread0.ignoredResponses            2                       # Number of memory responses ignored because the instruction is squashed
system.cpu0.iew.lsq.thread0.memOrderViolation           47                       # Number of memory ordering violations
system.cpu0.iew.lsq.thread0.squashedStores          365                       # Number of stores squashed
system.cpu0.iew.lsq.thread0.invAddrSwpfs            0                       # Number of software prefetches ignored due to an invalid address
system.cpu0.iew.lsq.thread0.blockedLoads            0                       # Number of blocked loads due to partial load-store forwarding
system.cpu0.iew.lsq.thread0.rescheduledLoads            5                       # Number of loads that were rescheduled
system.cpu0.iew.lsq.thread0.cacheBlocked            0                       # Number of times an access to memory failed due to the cache being blocked
system.cpu0.iew.iewIdleCycles                       0                       # Number of cycles IEW is idle
system.cpu0.iew.iewSquashCycles                   433                       # Number of cycles IEW is squashing
system.cpu0.iew.iewBlockCycles                    409                       # Number of cycles IEW is blocking
system.cpu0.iew.iewUnblockCycles                  136                       # Number of cycles IEW is unblocking
system.cpu0.iew.iewDispatchedInsts           46025644                       # Number of instructions dispatched to IQ
system.cpu0.iew.iewDispSquashedInsts              242                       # Number of squashed instructions skipped by dispatch
system.cpu0.iew.iewDispLoadInsts             18406187                       # Number of dispatched load instructions
system.cpu0.iew.iewDispStoreInsts             9205630                       # Number of dispatched store instructions
system.cpu0.iew.iewDispNonSpecInsts                41                       # Number of dispatched non-speculative instructions
system.cpu0.iew.iewIQFullEvents                    11                       # Number of times the IQ has become full, causing a stall
system.cpu0.iew.iewLSQFullEvents                    0                       # Number of times the LSQ has become full, causing a stall
system.cpu0.iew.memOrderViolationEvents            47                       # Number of memory order violations
system.cpu0.iew.predictedTakenIncorrect           104                       # Number of branches that were predicted taken incorrectly
system.cpu0.iew.predictedNotTakenIncorrect          295                       # Number of branches that were predicted not taken incorrectly
system.cpu0.iew.branchMispredicts                 399                       # Number of branch mispredicts detected at execute
system.cpu0.iew.iewExecutedInsts             46023581                       # Number of executed instructions
system.cpu0.iew.iewExecLoadInsts             18405785                       # Number of load instructions executed
system.cpu0.iew.iewExecSquashedInsts              398                       # Number of squashed instructions skipped in execute
system.cpu0.iew.exec_swp                            0                       # number of swp insts executed
system.cpu0.iew.exec_nop                           19                       # number of nop insts executed
system.cpu0.iew.exec_refs                    27611159                       # number of memory reference insts executed
system.cpu0.iew.exec_branches                 9203818                       # Number of branches executed
system.cpu0.iew.exec_forward_branches             820                       # Number of forward branches executed
system.cpu0.iew.exec_backward_branches        9202695                       # Number of backward branches executed
system.cpu0.iew.exec_taken_forward_branches          294                       # Number of forward branches executed that is taken
system.cpu0.iew.exec_nottaken_forward_branches          526                       # Number of forward branches executed that is not taken
system.cpu0.iew.exec_taken_backward_branches      9202463                       # Number of backward branches executed that is taken
system.cpu0.iew.exec_nottaken_backward_branches          232                       # Number of backward branches executed that is not taken
system.cpu0.iew.exec_stores                   9205374                       # Number of stores executed
system.cpu0.iew.exec_rate                    2.496980                       # Inst execution rate
system.cpu0.iew.wb_sent                      46023375                       # cumulative count of insts sent to commit
system.cpu0.iew.wb_count                     46023306                       # cumulative count of insts written-back
system.cpu0.iew.wb_producers                 27611815                       # num instructions producing a value
system.cpu0.iew.wb_consumers                 27621687                       # num instructions consuming a value
system.cpu0.iew.wb_penalized                        0                       # number of instrctions required to write to 'other' IQ
system.cpu0.iew.wb_rate                      2.496965                       # insts written-back per cycle
system.cpu0.iew.wb_fanout                    0.999643                       # average fanout of values written-back
system.cpu0.iew.wb_penalized_rate                   0                       # fraction of instructions written-back that wrote to 'other' IQ
system.cpu0.commit.commitSquashedInsts           3961                       # The number of squashed insts skipped by commit
system.cpu0.commit.commitNonSpecStalls             63                       # The number of times commit has been forced to stall to communicate backwards
system.cpu0.commit.branchMispredicts              376                       # The number of times a branch was mispredicted
system.cpu0.commit.committed_per_cycle::samples     18422730                       # Number of insts commited each cycle
system.cpu0.commit.committed_per_cycle::mean     2.498092                       # Number of insts commited each cycle
system.cpu0.commit.committed_per_cycle::stdev     1.581940                       # Number of insts commited each cycle
system.cpu0.commit.committed_per_cycle::underflows            0      0.00%      0.00% # Number of insts commited each cycle
system.cpu0.commit.committed_per_cycle::0        13248      0.07%      0.07% # Number of insts commited each cycle
system.cpu0.commit.committed_per_cycle::1      9204306     49.96%     50.03% # Number of insts commited each cycle
system.cpu0.commit.committed_per_cycle::2         1131      0.01%     50.04% # Number of insts commited each cycle
system.cpu0.commit.committed_per_cycle::3      2302259     12.50%     62.54% # Number of insts commited each cycle
system.cpu0.commit.committed_per_cycle::4      4601027     24.97%     87.51% # Number of insts commited each cycle
system.cpu0.commit.committed_per_cycle::5      2300547     12.49%    100.00% # Number of insts commited each cycle
system.cpu0.commit.committed_per_cycle::6           70      0.00%    100.00% # Number of insts commited each cycle
system.cpu0.commit.committed_per_cycle::7           62      0.00%    100.00% # Number of insts commited each cycle
system.cpu0.commit.committed_per_cycle::8           80      0.00%    100.00% # Number of insts commited each cycle
system.cpu0.commit.committed_per_cycle::overflows            0      0.00%    100.00% # Number of insts commited each cycle
system.cpu0.commit.committed_per_cycle::min_value            0                       # Number of insts commited each cycle
system.cpu0.commit.committed_per_cycle::max_value            8                       # Number of insts commited each cycle
system.cpu0.commit.committed_per_cycle::total     18422730                       # Number of insts commited each cycle
system.cpu0.commit.committedInsts            46018376                       # Number of instructions committed
system.cpu0.commit.committedOps              46021682                       # Number of ops (including micro ops) committed
system.cpu0.commit.swp_count                        0                       # Number of s/w prefetches committed
system.cpu0.commit.refs                      27610443                       # Number of memory references committed
system.cpu0.commit.loads                     18405178                       # Number of loads committed
system.cpu0.commit.membars                         26                       # Number of memory barriers committed
system.cpu0.commit.branches                   9203505                       # Number of branches committed
system.cpu0.commit.fp_insts                        16                       # Number of committed floating point instructions.
system.cpu0.commit.int_insts                 36818547                       # Number of committed integer instructions.
system.cpu0.commit.function_calls                 144                       # Number of function calls committed.
system.cpu0.commit.op_class_0::No_OpClass            0      0.00%      0.00% # Class of committed instruction
system.cpu0.commit.op_class_0::IntAlu        18411230     40.01%     40.01% # Class of committed instruction
system.cpu0.commit.op_class_0::IntMult              6      0.00%     40.01% # Class of committed instruction
system.cpu0.commit.op_class_0::IntDiv               0      0.00%     40.01% # Class of committed instruction
system.cpu0.commit.op_class_0::FloatAdd             0      0.00%     40.01% # Class of committed instruction
system.cpu0.commit.op_class_0::FloatCmp             0      0.00%     40.01% # Class of committed instruction
system.cpu0.commit.op_class_0::FloatCvt             0      0.00%     40.01% # Class of committed instruction
system.cpu0.commit.op_class_0::FloatMult            0      0.00%     40.01% # Class of committed instruction
system.cpu0.commit.op_class_0::FloatDiv             0      0.00%     40.01% # Class of committed instruction
system.cpu0.commit.op_class_0::FloatSqrt            0      0.00%     40.01% # Class of committed instruction
system.cpu0.commit.op_class_0::SimdAdd              0      0.00%     40.01% # Class of committed instruction
system.cpu0.commit.op_class_0::SimdAddAcc            0      0.00%     40.01% # Class of committed instruction
system.cpu0.commit.op_class_0::SimdAlu              0      0.00%     40.01% # Class of committed instruction
system.cpu0.commit.op_class_0::SimdCmp              0      0.00%     40.01% # Class of committed instruction
system.cpu0.commit.op_class_0::SimdCvt              0      0.00%     40.01% # Class of committed instruction
system.cpu0.commit.op_class_0::SimdMisc             0      0.00%     40.01% # Class of committed instruction
system.cpu0.commit.op_class_0::SimdMult             0      0.00%     40.01% # Class of committed instruction
system.cpu0.commit.op_class_0::SimdMultAcc            0      0.00%     40.01% # Class of committed instruction
system.cpu0.commit.op_class_0::SimdShift            0      0.00%     40.01% # Class of committed instruction
system.cpu0.commit.op_class_0::SimdShiftAcc            0      0.00%     40.01% # Class of committed instruction
system.cpu0.commit.op_class_0::SimdSqrt             0      0.00%     40.01% # Class of committed instruction
system.cpu0.commit.op_class_0::SimdFloatAdd            0      0.00%     40.01% # Class of committed instruction
system.cpu0.commit.op_class_0::SimdFloatAlu            0      0.00%     40.01% # Class of committed instruction
system.cpu0.commit.op_class_0::SimdFloatCmp            0      0.00%     40.01% # Class of committed instruction
system.cpu0.commit.op_class_0::SimdFloatCvt            0      0.00%     40.01% # Class of committed instruction
system.cpu0.commit.op_class_0::SimdFloatDiv            0      0.00%     40.01% # Class of committed instruction
system.cpu0.commit.op_class_0::SimdFloatMisc            3      0.00%     40.01% # Class of committed instruction
system.cpu0.commit.op_class_0::SimdFloatMult            0      0.00%     40.01% # Class of committed instruction
system.cpu0.commit.op_class_0::SimdFloatMultAcc            0      0.00%     40.01% # Class of committed instruction
system.cpu0.commit.op_class_0::SimdFloatSqrt            0      0.00%     40.01% # Class of committed instruction
system.cpu0.commit.op_class_0::MemRead       18405178     39.99%     80.00% # Class of committed instruction
system.cpu0.commit.op_class_0::MemWrite       9205265     20.00%    100.00% # Class of committed instruction
system.cpu0.commit.op_class_0::IprAccess            0      0.00%    100.00% # Class of committed instruction
system.cpu0.commit.op_class_0::InstPrefetch            0      0.00%    100.00% # Class of committed instruction
system.cpu0.commit.op_class_0::total         46021682                       # Class of committed instruction
system.cpu0.commit.bw_lim_events                   80                       # number cycles where commit BW limit reached
system.cpu0.rob.rob_reads                    64448162                       # The number of ROB reads
system.cpu0.rob.rob_writes                   92052022                       # The number of ROB writes
system.cpu0.timesIdled                            248                       # Number of times that the entire CPU went into an idle state and unscheduled itself
system.cpu0.idleCycles                           8234                       # Total number of cycles that the CPU has spent unscheduled due to idling
system.cpu0.committedInsts                   46018376                       # Number of Instructions Simulated
system.cpu0.committedOps                     46021682                       # Number of Ops (including micro ops) Simulated
system.cpu0.cpi                              0.400529                       # CPI: Cycles Per Instruction
system.cpu0.cpi_total                        0.400529                       # CPI: Total CPI of All Threads
system.cpu0.ipc                              2.496698                       # IPC: Instructions Per Cycle
system.cpu0.ipc_total                        2.496698                       # IPC: Total IPC of All Threads
system.cpu0.int_regfile_reads                46026013                       # number of integer regfile reads
system.cpu0.int_regfile_writes               18411543                       # number of integer regfile writes
system.cpu0.fp_regfile_reads                      176                       # number of floating regfile reads
system.cpu0.cc_regfile_reads                193287210                       # number of cc regfile reads
system.cpu0.cc_regfile_writes                27612875                       # number of cc regfile writes
system.cpu0.misc_regfile_reads               27613032                       # number of misc regfile reads
system.cpu0.misc_regfile_writes                    52                       # number of misc regfile writes
system.cpu0.dcache.tags.replacements               28                       # number of replacements
system.cpu0.dcache.tags.tagsinuse          148.195736                       # Cycle average of tags in use
system.cpu0.dcache.tags.total_refs           18406228                       # Total number of references to valid blocks.
system.cpu0.dcache.tags.sampled_refs              191                       # Sample count of references to valid blocks.
system.cpu0.dcache.tags.avg_refs         96367.685864                       # Average number of references to valid blocks.
system.cpu0.dcache.tags.warmup_cycle                0                       # Cycle when the warmup percentage was hit.
system.cpu0.dcache.tags.occ_blocks::cpu0.data   148.195736                       # Average occupied blocks per requestor
system.cpu0.dcache.tags.occ_percent::cpu0.data     0.289445                       # Average percentage of cache occupancy
system.cpu0.dcache.tags.occ_percent::total     0.289445                       # Average percentage of cache occupancy
system.cpu0.dcache.tags.occ_task_id_blocks::1024          163                       # Occupied blocks per task id
system.cpu0.dcache.tags.age_task_id_blocks_1024::0           22                       # Occupied blocks per task id
system.cpu0.dcache.tags.age_task_id_blocks_1024::4          141                       # Occupied blocks per task id
system.cpu0.dcache.tags.occ_task_id_percent::1024     0.318359                       # Percentage of cache occupancy per task id
system.cpu0.dcache.tags.tag_accesses         36818227                       # Number of tag accesses
system.cpu0.dcache.tags.data_accesses        36818227                       # Number of data accesses
system.cpu0.dcache.ReadReq_hits::cpu0.data      9203512                       # number of ReadReq hits
system.cpu0.dcache.ReadReq_hits::total        9203512                       # number of ReadReq hits
system.cpu0.dcache.WriteReq_hits::cpu0.data      9202837                       # number of WriteReq hits
system.cpu0.dcache.WriteReq_hits::total       9202837                       # number of WriteReq hits
system.cpu0.dcache.LoadLockedReq_hits::cpu0.data           22                       # number of LoadLockedReq hits
system.cpu0.dcache.LoadLockedReq_hits::total           22                       # number of LoadLockedReq hits
system.cpu0.dcache.StoreCondReq_hits::cpu0.data           24                       # number of StoreCondReq hits
system.cpu0.dcache.StoreCondReq_hits::total           24                       # number of StoreCondReq hits
system.cpu0.dcache.demand_hits::cpu0.data     18406349                       # number of demand (read+write) hits
system.cpu0.dcache.demand_hits::total        18406349                       # number of demand (read+write) hits
system.cpu0.dcache.overall_hits::cpu0.data     18406349                       # number of overall hits
system.cpu0.dcache.overall_hits::total       18406349                       # number of overall hits
system.cpu0.dcache.ReadReq_misses::cpu0.data          201                       # number of ReadReq misses
system.cpu0.dcache.ReadReq_misses::total          201                       # number of ReadReq misses
system.cpu0.dcache.WriteReq_misses::cpu0.data         2359                       # number of WriteReq misses
system.cpu0.dcache.WriteReq_misses::total         2359                       # number of WriteReq misses
system.cpu0.dcache.LoadLockedReq_misses::cpu0.data            3                       # number of LoadLockedReq misses
system.cpu0.dcache.LoadLockedReq_misses::total            3                       # number of LoadLockedReq misses
system.cpu0.dcache.StoreCondReq_misses::cpu0.data            1                       # number of StoreCondReq misses
system.cpu0.dcache.StoreCondReq_misses::total            1                       # number of StoreCondReq misses
system.cpu0.dcache.demand_misses::cpu0.data         2560                       # number of demand (read+write) misses
system.cpu0.dcache.demand_misses::total          2560                       # number of demand (read+write) misses
system.cpu0.dcache.overall_misses::cpu0.data         2560                       # number of overall misses
system.cpu0.dcache.overall_misses::total         2560                       # number of overall misses
system.cpu0.dcache.ReadReq_miss_latency::cpu0.data      9266494                       # number of ReadReq miss cycles
system.cpu0.dcache.ReadReq_miss_latency::total      9266494                       # number of ReadReq miss cycles
system.cpu0.dcache.WriteReq_miss_latency::cpu0.data    118222500                       # number of WriteReq miss cycles
system.cpu0.dcache.WriteReq_miss_latency::total    118222500                       # number of WriteReq miss cycles
system.cpu0.dcache.LoadLockedReq_miss_latency::cpu0.data       133500                       # number of LoadLockedReq miss cycles
system.cpu0.dcache.LoadLockedReq_miss_latency::total       133500                       # number of LoadLockedReq miss cycles
system.cpu0.dcache.StoreCondReq_miss_latency::cpu0.data         7500                       # number of StoreCondReq miss cycles
system.cpu0.dcache.StoreCondReq_miss_latency::total         7500                       # number of StoreCondReq miss cycles
system.cpu0.dcache.demand_miss_latency::cpu0.data    127488994                       # number of demand (read+write) miss cycles
system.cpu0.dcache.demand_miss_latency::total    127488994                       # number of demand (read+write) miss cycles
system.cpu0.dcache.overall_miss_latency::cpu0.data    127488994                       # number of overall miss cycles
system.cpu0.dcache.overall_miss_latency::total    127488994                       # number of overall miss cycles
system.cpu0.dcache.ReadReq_accesses::cpu0.data      9203713                       # number of ReadReq accesses(hits+misses)
system.cpu0.dcache.ReadReq_accesses::total      9203713                       # number of ReadReq accesses(hits+misses)
system.cpu0.dcache.WriteReq_accesses::cpu0.data      9205196                       # number of WriteReq accesses(hits+misses)
system.cpu0.dcache.WriteReq_accesses::total      9205196                       # number of WriteReq accesses(hits+misses)
system.cpu0.dcache.LoadLockedReq_accesses::cpu0.data           25                       # number of LoadLockedReq accesses(hits+misses)
system.cpu0.dcache.LoadLockedReq_accesses::total           25                       # number of LoadLockedReq accesses(hits+misses)
system.cpu0.dcache.StoreCondReq_accesses::cpu0.data           25                       # number of StoreCondReq accesses(hits+misses)
system.cpu0.dcache.StoreCondReq_accesses::total           25                       # number of StoreCondReq accesses(hits+misses)
system.cpu0.dcache.demand_accesses::cpu0.data     18408909                       # number of demand (read+write) accesses
system.cpu0.dcache.demand_accesses::total     18408909                       # number of demand (read+write) accesses
system.cpu0.dcache.overall_accesses::cpu0.data     18408909                       # number of overall (read+write) accesses
system.cpu0.dcache.overall_accesses::total     18408909                       # number of overall (read+write) accesses
system.cpu0.dcache.ReadReq_miss_rate::cpu0.data     0.000022                       # miss rate for ReadReq accesses
system.cpu0.dcache.ReadReq_miss_rate::total     0.000022                       # miss rate for ReadReq accesses
system.cpu0.dcache.WriteReq_miss_rate::cpu0.data     0.000256                       # miss rate for WriteReq accesses
system.cpu0.dcache.WriteReq_miss_rate::total     0.000256                       # miss rate for WriteReq accesses
system.cpu0.dcache.LoadLockedReq_miss_rate::cpu0.data     0.120000                       # miss rate for LoadLockedReq accesses
system.cpu0.dcache.LoadLockedReq_miss_rate::total     0.120000                       # miss rate for LoadLockedReq accesses
system.cpu0.dcache.StoreCondReq_miss_rate::cpu0.data     0.040000                       # miss rate for StoreCondReq accesses
system.cpu0.dcache.StoreCondReq_miss_rate::total     0.040000                       # miss rate for StoreCondReq accesses
system.cpu0.dcache.demand_miss_rate::cpu0.data     0.000139                       # miss rate for demand accesses
system.cpu0.dcache.demand_miss_rate::total     0.000139                       # miss rate for demand accesses
system.cpu0.dcache.overall_miss_rate::cpu0.data     0.000139                       # miss rate for overall accesses
system.cpu0.dcache.overall_miss_rate::total     0.000139                       # miss rate for overall accesses
system.cpu0.dcache.ReadReq_avg_miss_latency::cpu0.data 46101.960199                       # average ReadReq miss latency
system.cpu0.dcache.ReadReq_avg_miss_latency::total 46101.960199                       # average ReadReq miss latency
system.cpu0.dcache.WriteReq_avg_miss_latency::cpu0.data 50115.515049                       # average WriteReq miss latency
system.cpu0.dcache.WriteReq_avg_miss_latency::total 50115.515049                       # average WriteReq miss latency
system.cpu0.dcache.LoadLockedReq_avg_miss_latency::cpu0.data        44500                       # average LoadLockedReq miss latency
system.cpu0.dcache.LoadLockedReq_avg_miss_latency::total        44500                       # average LoadLockedReq miss latency
system.cpu0.dcache.StoreCondReq_avg_miss_latency::cpu0.data         7500                       # average StoreCondReq miss latency
system.cpu0.dcache.StoreCondReq_avg_miss_latency::total         7500                       # average StoreCondReq miss latency
system.cpu0.dcache.demand_avg_miss_latency::cpu0.data 49800.388281                       # average overall miss latency
system.cpu0.dcache.demand_avg_miss_latency::total 49800.388281                       # average overall miss latency
system.cpu0.dcache.overall_avg_miss_latency::cpu0.data 49800.388281                       # average overall miss latency
system.cpu0.dcache.overall_avg_miss_latency::total 49800.388281                       # average overall miss latency
system.cpu0.dcache.blocked_cycles::no_mshrs            0                       # number of cycles access was blocked
system.cpu0.dcache.blocked_cycles::no_targets            0                       # number of cycles access was blocked
system.cpu0.dcache.blocked::no_mshrs                0                       # number of cycles access was blocked
system.cpu0.dcache.blocked::no_targets              0                       # number of cycles access was blocked
system.cpu0.dcache.avg_blocked_cycles::no_mshrs          nan                       # average number of cycles each access was blocked
system.cpu0.dcache.avg_blocked_cycles::no_targets          nan                       # average number of cycles each access was blocked
system.cpu0.dcache.fast_writes                      0                       # number of fast writes performed
system.cpu0.dcache.cache_copies                     0                       # number of cache copies performed
system.cpu0.dcache.writebacks::writebacks           11                       # number of writebacks
system.cpu0.dcache.writebacks::total               11                       # number of writebacks
system.cpu0.dcache.ReadReq_mshr_hits::cpu0.data           69                       # number of ReadReq MSHR hits
system.cpu0.dcache.ReadReq_mshr_hits::total           69                       # number of ReadReq MSHR hits
system.cpu0.dcache.WriteReq_mshr_hits::cpu0.data         2179                       # number of WriteReq MSHR hits
system.cpu0.dcache.WriteReq_mshr_hits::total         2179                       # number of WriteReq MSHR hits
system.cpu0.dcache.LoadLockedReq_mshr_hits::cpu0.data            3                       # number of LoadLockedReq MSHR hits
system.cpu0.dcache.LoadLockedReq_mshr_hits::total            3                       # number of LoadLockedReq MSHR hits
system.cpu0.dcache.demand_mshr_hits::cpu0.data         2248                       # number of demand (read+write) MSHR hits
system.cpu0.dcache.demand_mshr_hits::total         2248                       # number of demand (read+write) MSHR hits
system.cpu0.dcache.overall_mshr_hits::cpu0.data         2248                       # number of overall MSHR hits
system.cpu0.dcache.overall_mshr_hits::total         2248                       # number of overall MSHR hits
system.cpu0.dcache.ReadReq_mshr_misses::cpu0.data          132                       # number of ReadReq MSHR misses
system.cpu0.dcache.ReadReq_mshr_misses::total          132                       # number of ReadReq MSHR misses
system.cpu0.dcache.WriteReq_mshr_misses::cpu0.data          180                       # number of WriteReq MSHR misses
system.cpu0.dcache.WriteReq_mshr_misses::total          180                       # number of WriteReq MSHR misses
system.cpu0.dcache.StoreCondReq_mshr_misses::cpu0.data            1                       # number of StoreCondReq MSHR misses
system.cpu0.dcache.StoreCondReq_mshr_misses::total            1                       # number of StoreCondReq MSHR misses
system.cpu0.dcache.demand_mshr_misses::cpu0.data          312                       # number of demand (read+write) MSHR misses
system.cpu0.dcache.demand_mshr_misses::total          312                       # number of demand (read+write) MSHR misses
system.cpu0.dcache.overall_mshr_misses::cpu0.data          312                       # number of overall MSHR misses
system.cpu0.dcache.overall_mshr_misses::total          312                       # number of overall MSHR misses
system.cpu0.dcache.ReadReq_mshr_miss_latency::cpu0.data      6063505                       # number of ReadReq MSHR miss cycles
system.cpu0.dcache.ReadReq_mshr_miss_latency::total      6063505                       # number of ReadReq MSHR miss cycles
system.cpu0.dcache.WriteReq_mshr_miss_latency::cpu0.data      9801500                       # number of WriteReq MSHR miss cycles
system.cpu0.dcache.WriteReq_mshr_miss_latency::total      9801500                       # number of WriteReq MSHR miss cycles
system.cpu0.dcache.StoreCondReq_mshr_miss_latency::cpu0.data         4500                       # number of StoreCondReq MSHR miss cycles
system.cpu0.dcache.StoreCondReq_mshr_miss_latency::total         4500                       # number of StoreCondReq MSHR miss cycles
system.cpu0.dcache.demand_mshr_miss_latency::cpu0.data     15865005                       # number of demand (read+write) MSHR miss cycles
system.cpu0.dcache.demand_mshr_miss_latency::total     15865005                       # number of demand (read+write) MSHR miss cycles
system.cpu0.dcache.overall_mshr_miss_latency::cpu0.data     15865005                       # number of overall MSHR miss cycles
system.cpu0.dcache.overall_mshr_miss_latency::total     15865005                       # number of overall MSHR miss cycles
system.cpu0.dcache.ReadReq_mshr_miss_rate::cpu0.data     0.000014                       # mshr miss rate for ReadReq accesses
system.cpu0.dcache.ReadReq_mshr_miss_rate::total     0.000014                       # mshr miss rate for ReadReq accesses
system.cpu0.dcache.WriteReq_mshr_miss_rate::cpu0.data     0.000020                       # mshr miss rate for WriteReq accesses
system.cpu0.dcache.WriteReq_mshr_miss_rate::total     0.000020                       # mshr miss rate for WriteReq accesses
system.cpu0.dcache.StoreCondReq_mshr_miss_rate::cpu0.data     0.040000                       # mshr miss rate for StoreCondReq accesses
system.cpu0.dcache.StoreCondReq_mshr_miss_rate::total     0.040000                       # mshr miss rate for StoreCondReq accesses
system.cpu0.dcache.demand_mshr_miss_rate::cpu0.data     0.000017                       # mshr miss rate for demand accesses
system.cpu0.dcache.demand_mshr_miss_rate::total     0.000017                       # mshr miss rate for demand accesses
system.cpu0.dcache.overall_mshr_miss_rate::cpu0.data     0.000017                       # mshr miss rate for overall accesses
system.cpu0.dcache.overall_mshr_miss_rate::total     0.000017                       # mshr miss rate for overall accesses
system.cpu0.dcache.ReadReq_avg_mshr_miss_latency::cpu0.data 45935.643939                       # average ReadReq mshr miss latency
system.cpu0.dcache.ReadReq_avg_mshr_miss_latency::total 45935.643939                       # average ReadReq mshr miss latency
system.cpu0.dcache.WriteReq_avg_mshr_miss_latency::cpu0.data 54452.777778                       # average WriteReq mshr miss latency
system.cpu0.dcache.WriteReq_avg_mshr_miss_latency::total 54452.777778                       # average WriteReq mshr miss latency
system.cpu0.dcache.StoreCondReq_avg_mshr_miss_latency::cpu0.data         4500                       # average StoreCondReq mshr miss latency
system.cpu0.dcache.StoreCondReq_avg_mshr_miss_latency::total         4500                       # average StoreCondReq mshr miss latency
system.cpu0.dcache.demand_avg_mshr_miss_latency::cpu0.data 50849.375000                       # average overall mshr miss latency
system.cpu0.dcache.demand_avg_mshr_miss_latency::total 50849.375000                       # average overall mshr miss latency
system.cpu0.dcache.overall_avg_mshr_miss_latency::cpu0.data 50849.375000                       # average overall mshr miss latency
system.cpu0.dcache.overall_avg_mshr_miss_latency::total 50849.375000                       # average overall mshr miss latency
system.cpu0.dcache.no_allocate_misses               0                       # Number of misses that were no-allocate
system.cpu0.icache.tags.replacements               64                       # number of replacements
system.cpu0.icache.tags.tagsinuse          289.825375                       # Cycle average of tags in use
system.cpu0.icache.tags.total_refs               1430                       # Total number of references to valid blocks.
system.cpu0.icache.tags.sampled_refs              384                       # Sample count of references to valid blocks.
system.cpu0.icache.tags.avg_refs             3.723958                       # Average number of references to valid blocks.
system.cpu0.icache.tags.warmup_cycle                0                       # Cycle when the warmup percentage was hit.
system.cpu0.icache.tags.occ_blocks::cpu0.inst   289.825375                       # Average occupied blocks per requestor
system.cpu0.icache.tags.occ_percent::cpu0.inst     0.566065                       # Average percentage of cache occupancy
system.cpu0.icache.tags.occ_percent::total     0.566065                       # Average percentage of cache occupancy
system.cpu0.icache.tags.occ_task_id_blocks::1024          320                       # Occupied blocks per task id
system.cpu0.icache.tags.age_task_id_blocks_1024::0           43                       # Occupied blocks per task id
system.cpu0.icache.tags.age_task_id_blocks_1024::4          277                       # Occupied blocks per task id
system.cpu0.icache.tags.occ_task_id_percent::1024     0.625000                       # Percentage of cache occupancy per task id
system.cpu0.icache.tags.tag_accesses             4134                       # Number of tag accesses
system.cpu0.icache.tags.data_accesses            4134                       # Number of data accesses
system.cpu0.icache.ReadReq_hits::cpu0.inst         1430                       # number of ReadReq hits
system.cpu0.icache.ReadReq_hits::total           1430                       # number of ReadReq hits
system.cpu0.icache.demand_hits::cpu0.inst         1430                       # number of demand (read+write) hits
system.cpu0.icache.demand_hits::total            1430                       # number of demand (read+write) hits
system.cpu0.icache.overall_hits::cpu0.inst         1430                       # number of overall hits
system.cpu0.icache.overall_hits::total           1430                       # number of overall hits
system.cpu0.icache.ReadReq_misses::cpu0.inst          445                       # number of ReadReq misses
system.cpu0.icache.ReadReq_misses::total          445                       # number of ReadReq misses
system.cpu0.icache.demand_misses::cpu0.inst          445                       # number of demand (read+write) misses
system.cpu0.icache.demand_misses::total           445                       # number of demand (read+write) misses
system.cpu0.icache.overall_misses::cpu0.inst          445                       # number of overall misses
system.cpu0.icache.overall_misses::total          445                       # number of overall misses
system.cpu0.icache.ReadReq_miss_latency::cpu0.inst     23216498                       # number of ReadReq miss cycles
system.cpu0.icache.ReadReq_miss_latency::total     23216498                       # number of ReadReq miss cycles
system.cpu0.icache.demand_miss_latency::cpu0.inst     23216498                       # number of demand (read+write) miss cycles
system.cpu0.icache.demand_miss_latency::total     23216498                       # number of demand (read+write) miss cycles
system.cpu0.icache.overall_miss_latency::cpu0.inst     23216498                       # number of overall miss cycles
system.cpu0.icache.overall_miss_latency::total     23216498                       # number of overall miss cycles
system.cpu0.icache.ReadReq_accesses::cpu0.inst         1875                       # number of ReadReq accesses(hits+misses)
system.cpu0.icache.ReadReq_accesses::total         1875                       # number of ReadReq accesses(hits+misses)
system.cpu0.icache.demand_accesses::cpu0.inst         1875                       # number of demand (read+write) accesses
system.cpu0.icache.demand_accesses::total         1875                       # number of demand (read+write) accesses
system.cpu0.icache.overall_accesses::cpu0.inst         1875                       # number of overall (read+write) accesses
system.cpu0.icache.overall_accesses::total         1875                       # number of overall (read+write) accesses
system.cpu0.icache.ReadReq_miss_rate::cpu0.inst     0.237333                       # miss rate for ReadReq accesses
system.cpu0.icache.ReadReq_miss_rate::total     0.237333                       # miss rate for ReadReq accesses
system.cpu0.icache.demand_miss_rate::cpu0.inst     0.237333                       # miss rate for demand accesses
system.cpu0.icache.demand_miss_rate::total     0.237333                       # miss rate for demand accesses
system.cpu0.icache.overall_miss_rate::cpu0.inst     0.237333                       # miss rate for overall accesses
system.cpu0.icache.overall_miss_rate::total     0.237333                       # miss rate for overall accesses
system.cpu0.icache.ReadReq_avg_miss_latency::cpu0.inst 52171.905618                       # average ReadReq miss latency
system.cpu0.icache.ReadReq_avg_miss_latency::total 52171.905618                       # average ReadReq miss latency
system.cpu0.icache.demand_avg_miss_latency::cpu0.inst 52171.905618                       # average overall miss latency
system.cpu0.icache.demand_avg_miss_latency::total 52171.905618                       # average overall miss latency
system.cpu0.icache.overall_avg_miss_latency::cpu0.inst 52171.905618                       # average overall miss latency
system.cpu0.icache.overall_avg_miss_latency::total 52171.905618                       # average overall miss latency
system.cpu0.icache.blocked_cycles::no_mshrs           11                       # number of cycles access was blocked
system.cpu0.icache.blocked_cycles::no_targets            0                       # number of cycles access was blocked
system.cpu0.icache.blocked::no_mshrs                1                       # number of cycles access was blocked
system.cpu0.icache.blocked::no_targets              0                       # number of cycles access was blocked
system.cpu0.icache.avg_blocked_cycles::no_mshrs           11                       # average number of cycles each access was blocked
system.cpu0.icache.avg_blocked_cycles::no_targets          nan                       # average number of cycles each access was blocked
system.cpu0.icache.fast_writes                      0                       # number of fast writes performed
system.cpu0.icache.cache_copies                     0                       # number of cache copies performed
system.cpu0.icache.ReadReq_mshr_hits::cpu0.inst           61                       # number of ReadReq MSHR hits
system.cpu0.icache.ReadReq_mshr_hits::total           61                       # number of ReadReq MSHR hits
system.cpu0.icache.demand_mshr_hits::cpu0.inst           61                       # number of demand (read+write) MSHR hits
system.cpu0.icache.demand_mshr_hits::total           61                       # number of demand (read+write) MSHR hits
system.cpu0.icache.overall_mshr_hits::cpu0.inst           61                       # number of overall MSHR hits
system.cpu0.icache.overall_mshr_hits::total           61                       # number of overall MSHR hits
system.cpu0.icache.ReadReq_mshr_misses::cpu0.inst          384                       # number of ReadReq MSHR misses
system.cpu0.icache.ReadReq_mshr_misses::total          384                       # number of ReadReq MSHR misses
system.cpu0.icache.demand_mshr_misses::cpu0.inst          384                       # number of demand (read+write) MSHR misses
system.cpu0.icache.demand_mshr_misses::total          384                       # number of demand (read+write) MSHR misses
system.cpu0.icache.overall_mshr_misses::cpu0.inst          384                       # number of overall MSHR misses
system.cpu0.icache.overall_mshr_misses::total          384                       # number of overall MSHR misses
system.cpu0.icache.ReadReq_mshr_miss_latency::cpu0.inst     19964002                       # number of ReadReq MSHR miss cycles
system.cpu0.icache.ReadReq_mshr_miss_latency::total     19964002                       # number of ReadReq MSHR miss cycles
system.cpu0.icache.demand_mshr_miss_latency::cpu0.inst     19964002                       # number of demand (read+write) MSHR miss cycles
system.cpu0.icache.demand_mshr_miss_latency::total     19964002                       # number of demand (read+write) MSHR miss cycles
system.cpu0.icache.overall_mshr_miss_latency::cpu0.inst     19964002                       # number of overall MSHR miss cycles
system.cpu0.icache.overall_mshr_miss_latency::total     19964002                       # number of overall MSHR miss cycles
system.cpu0.icache.ReadReq_mshr_miss_rate::cpu0.inst     0.204800                       # mshr miss rate for ReadReq accesses
[...]
system.l2.ReadReq_avg_miss_latency::cpu1.inst 53130.268199                       # average ReadReq miss latency
system.l2.ReadReq_avg_miss_latency::cpu1.data 53239.130435                       # average ReadReq miss latency
system.l2.ReadReq_avg_miss_latency::total 53385.245902                       # average ReadReq miss latency
system.l2.ReadExReq_avg_miss_latency::cpu0.data 53251.412429                       # average ReadExReq miss latency
system.l2.ReadExReq_avg_miss_latency::cpu1.data 53005.563282                       # average ReadExReq miss latency
system.l2.ReadExReq_avg_miss_latency::total 53054.129464                       # average ReadExReq miss latency
system.l2.demand_avg_miss_latency::cpu0.inst 53437.677054                       # average overall miss latency
system.l2.demand_avg_miss_latency::cpu0.data 53544.802867                       # average overall miss latency
system.l2.demand_avg_miss_latency::cpu1.inst 53130.268199                       # average overall miss latency
system.l2.demand_avg_miss_latency::cpu1.data 53043.173862                       # average overall miss latency
system.l2.demand_avg_miss_latency::total 53215.714286                       # average overall miss latency
system.l2.overall_avg_miss_latency::cpu0.inst 53437.677054                       # average overall miss latency
system.l2.overall_avg_miss_latency::cpu0.data 53544.802867                       # average overall miss latency
system.l2.overall_avg_miss_latency::cpu1.inst 53130.268199                       # average overall miss latency
system.l2.overall_avg_miss_latency::cpu1.data 53043.173862                       # average overall miss latency
system.l2.overall_avg_miss_latency::total 53215.714286                       # average overall miss latency
system.l2.blocked_cycles::no_mshrs                  0                       # number of cycles access was blocked
system.l2.blocked_cycles::no_targets                0                       # number of cycles access was blocked
system.l2.blocked::no_mshrs                         0                       # number of cycles access was blocked
system.l2.blocked::no_targets                       0                       # number of cycles access was blocked
system.l2.avg_blocked_cycles::no_mshrs            nan                       # average number of cycles each access was blocked
system.l2.avg_blocked_cycles::no_targets          nan                       # average number of cycles each access was blocked
system.l2.fast_writes                               0                       # number of fast writes performed
system.l2.cache_copies                              0                       # number of cache copies performed
system.l2.ReadReq_mshr_hits::cpu0.inst              2                       # number of ReadReq MSHR hits
system.l2.ReadReq_mshr_hits::cpu0.data              6                       # number of ReadReq MSHR hits
system.l2.ReadReq_mshr_hits::total                  8                       # number of ReadReq MSHR hits
system.l2.demand_mshr_hits::cpu0.inst               2                       # number of demand (read+write) MSHR hits
system.l2.demand_mshr_hits::cpu0.data               6                       # number of demand (read+write) MSHR hits
system.l2.demand_mshr_hits::total                   8                       # number of demand (read+write) MSHR hits
system.l2.overall_mshr_hits::cpu0.inst              2                       # number of overall MSHR hits
system.l2.overall_mshr_hits::cpu0.data              6                       # number of overall MSHR hits
system.l2.overall_mshr_hits::total                  8                       # number of overall MSHR hits
system.l2.ReadReq_mshr_misses::cpu0.inst          351                       # number of ReadReq MSHR misses
system.l2.ReadReq_mshr_misses::cpu0.data           96                       # number of ReadReq MSHR misses
system.l2.ReadReq_mshr_misses::cpu1.inst          261                       # number of ReadReq MSHR misses
system.l2.ReadReq_mshr_misses::cpu1.data          138                       # number of ReadReq MSHR misses
system.l2.ReadReq_mshr_misses::total              846                       # number of ReadReq MSHR misses
system.l2.ReadExReq_mshr_misses::cpu0.data          177                       # number of ReadExReq MSHR misses
system.l2.ReadExReq_mshr_misses::cpu1.data          719                       # number of ReadExReq MSHR misses
system.l2.ReadExReq_mshr_misses::total            896                       # number of ReadExReq MSHR misses
system.l2.demand_mshr_misses::cpu0.inst           351                       # number of demand (read+write) MSHR misses
system.l2.demand_mshr_misses::cpu0.data           273                       # number of demand (read+write) MSHR misses
system.l2.demand_mshr_misses::cpu1.inst           261                       # number of demand (read+write) MSHR misses
system.l2.demand_mshr_misses::cpu1.data           857                       # number of demand (read+write) MSHR misses
system.l2.demand_mshr_misses::total              1742                       # number of demand (read+write) MSHR misses
system.l2.overall_mshr_misses::cpu0.inst          351                       # number of overall MSHR misses
system.l2.overall_mshr_misses::cpu0.data          273                       # number of overall MSHR misses
system.l2.overall_mshr_misses::cpu1.inst          261                       # number of overall MSHR misses
system.l2.overall_mshr_misses::cpu1.data          857                       # number of overall MSHR misses
system.l2.overall_mshr_misses::total             1742                       # number of overall MSHR misses
system.l2.ReadReq_mshr_miss_latency::cpu0.inst     14403000                       # number of ReadReq MSHR miss cycles
system.l2.ReadReq_mshr_miss_latency::cpu0.data      4053500                       # number of ReadReq MSHR miss cycles
system.l2.ReadReq_mshr_miss_latency::cpu1.inst     10616000                       # number of ReadReq MSHR miss cycles
system.l2.ReadReq_mshr_miss_latency::cpu1.data      5628500                       # number of ReadReq MSHR miss cycles
system.l2.ReadReq_mshr_miss_latency::total     34701000                       # number of ReadReq MSHR miss cycles
system.l2.ReadExReq_mshr_miss_latency::cpu0.data      7220000                       # number of ReadExReq MSHR miss cycles
system.l2.ReadExReq_mshr_miss_latency::cpu1.data     29125000                       # number of ReadExReq MSHR miss cycles
system.l2.ReadExReq_mshr_miss_latency::total     36345000                       # number of ReadExReq MSHR miss cycles
system.l2.demand_mshr_miss_latency::cpu0.inst     14403000                       # number of demand (read+write) MSHR miss cycles
system.l2.demand_mshr_miss_latency::cpu0.data     11273500                       # number of demand (read+write) MSHR miss cycles
system.l2.demand_mshr_miss_latency::cpu1.inst     10616000                       # number of demand (read+write) MSHR miss cycles
system.l2.demand_mshr_miss_latency::cpu1.data     34753500                       # number of demand (read+write) MSHR miss cycles
system.l2.demand_mshr_miss_latency::total     71046000                       # number of demand (read+write) MSHR miss cycles
system.l2.overall_mshr_miss_latency::cpu0.inst     14403000                       # number of overall MSHR miss cycles
system.l2.overall_mshr_miss_latency::cpu0.data     11273500                       # number of overall MSHR miss cycles
system.l2.overall_mshr_miss_latency::cpu1.inst     10616000                       # number of overall MSHR miss cycles
system.l2.overall_mshr_miss_latency::cpu1.data     34753500                       # number of overall MSHR miss cycles
system.l2.overall_mshr_miss_latency::total     71046000                       # number of overall MSHR miss cycles
system.l2.ReadReq_mshr_miss_rate::cpu0.inst     0.914062                       # mshr miss rate for ReadReq accesses
system.l2.ReadReq_mshr_miss_rate::cpu0.data     0.750000                       # mshr miss rate for ReadReq accesses
system.l2.ReadReq_mshr_miss_rate::cpu1.inst     0.567391                       # mshr miss rate for ReadReq accesses
system.l2.ReadReq_mshr_miss_rate::cpu1.data     0.003111                       # mshr miss rate for ReadReq accesses
system.l2.ReadReq_mshr_miss_rate::total      0.018661                       # mshr miss rate for ReadReq accesses
system.l2.ReadExReq_mshr_miss_rate::cpu0.data            1                       # mshr miss rate for ReadExReq accesses
system.l2.ReadExReq_mshr_miss_rate::cpu1.data     0.994467                       # mshr miss rate for ReadExReq accesses
system.l2.ReadExReq_mshr_miss_rate::total     0.995556                       # mshr miss rate for ReadExReq accesses
system.l2.demand_mshr_miss_rate::cpu0.inst     0.914062                       # mshr miss rate for demand accesses
system.l2.demand_mshr_miss_rate::cpu0.data     0.895082                       # mshr miss rate for demand accesses
system.l2.demand_mshr_miss_rate::cpu1.inst     0.567391                       # mshr miss rate for demand accesses
system.l2.demand_mshr_miss_rate::cpu1.data     0.019009                       # mshr miss rate for demand accesses
system.l2.demand_mshr_miss_rate::total       0.037678                       # mshr miss rate for demand accesses
system.l2.overall_mshr_miss_rate::cpu0.inst     0.914062                       # mshr miss rate for overall accesses
system.l2.overall_mshr_miss_rate::cpu0.data     0.895082                       # mshr miss rate for overall accesses
system.l2.overall_mshr_miss_rate::cpu1.inst     0.567391                       # mshr miss rate for overall accesses
system.l2.overall_mshr_miss_rate::cpu1.data     0.019009                       # mshr miss rate for overall accesses
system.l2.overall_mshr_miss_rate::total      0.037678                       # mshr miss rate for overall accesses
system.l2.ReadReq_avg_mshr_miss_latency::cpu0.inst 41034.188034                       # average ReadReq mshr miss latency
system.l2.ReadReq_avg_mshr_miss_latency::cpu0.data 42223.958333                       # average ReadReq mshr miss latency
system.l2.ReadReq_avg_mshr_miss_latency::cpu1.inst 40674.329502                       # average ReadReq mshr miss latency
system.l2.ReadReq_avg_mshr_miss_latency::cpu1.data 40786.231884                       # average ReadReq mshr miss latency
system.l2.ReadReq_avg_mshr_miss_latency::total 41017.730496                       # average ReadReq mshr miss latency
system.l2.ReadExReq_avg_mshr_miss_latency::cpu0.data 40790.960452                       # average ReadExReq mshr miss latency
system.l2.ReadExReq_avg_mshr_miss_latency::cpu1.data 40507.649513                       # average ReadExReq mshr miss latency
system.l2.ReadExReq_avg_mshr_miss_latency::total 40563.616071                       # average ReadExReq mshr miss latency
system.l2.demand_avg_mshr_miss_latency::cpu0.inst 41034.188034                       # average overall mshr miss latency
system.l2.demand_avg_mshr_miss_latency::cpu0.data 41294.871795                       # average overall mshr miss latency
system.l2.demand_avg_mshr_miss_latency::cpu1.inst 40674.329502                       # average overall mshr miss latency
system.l2.demand_avg_mshr_miss_latency::cpu1.data 40552.508751                       # average overall mshr miss latency
system.l2.demand_avg_mshr_miss_latency::total 40784.156142                       # average overall mshr miss latency
system.l2.overall_avg_mshr_miss_latency::cpu0.inst 41034.188034                       # average overall mshr miss latency
system.l2.overall_avg_mshr_miss_latency::cpu0.data 41294.871795                       # average overall mshr miss latency
system.l2.overall_avg_mshr_miss_latency::cpu1.inst 40674.329502                       # average overall mshr miss latency
system.l2.overall_avg_mshr_miss_latency::cpu1.data 40552.508751                       # average overall mshr miss latency
system.l2.overall_avg_mshr_miss_latency::total 40784.156142                       # average overall mshr miss latency
system.l2.no_allocate_misses                        0                       # Number of misses that were no-allocate
system.membus.trans_dist::ReadReq                 846                       # Transaction distribution
system.membus.trans_dist::ReadResp                846                       # Transaction distribution
system.membus.trans_dist::UpgradeReq              112                       # Transaction distribution
system.membus.trans_dist::SCUpgradeReq              6                       # Transaction distribution
system.membus.trans_dist::ReadExReq               897                       # Transaction distribution
system.membus.trans_dist::ReadExResp              896                       # Transaction distribution
system.membus.pkt_count_system.l2.mem_side::system.physmem.port         3603                       # Packet count per connected master and slave (bytes)
system.membus.pkt_count::total                   3603                       # Packet count per connected master and slave (bytes)
system.membus.pkt_size_system.l2.mem_side::system.physmem.port       111488                       # Cumulative packet size per connected master and slave (bytes)
system.membus.pkt_size::total                  111488                       # Cumulative packet size per connected master and slave (bytes)
system.membus.snoops                              119                       # Total snoops (count)
system.membus.snoop_fanout::samples              1988                       # Request fanout histogram
system.membus.snoop_fanout::mean                    0                       # Request fanout histogram
system.membus.snoop_fanout::stdev                   0                       # Request fanout histogram
system.membus.snoop_fanout::underflows              0      0.00%      0.00% # Request fanout histogram
system.membus.snoop_fanout::0                    1988    100.00%    100.00% # Request fanout histogram
system.membus.snoop_fanout::1                       0      0.00%    100.00% # Request fanout histogram
system.membus.snoop_fanout::overflows               0      0.00%    100.00% # Request fanout histogram
system.membus.snoop_fanout::min_value               0                       # Request fanout histogram
system.membus.snoop_fanout::max_value               0                       # Request fanout histogram
system.membus.snoop_fanout::total                1988                       # Request fanout histogram
system.membus.reqLayer0.occupancy             2781844                       # Layer occupancy (ticks)
system.membus.reqLayer0.utilization               0.0                       # Layer utilization (%)
system.membus.respLayer1.occupancy            9506500                       # Layer occupancy (ticks)
system.membus.respLayer1.utilization              0.1                       # Layer utilization (%)
system.tol2bus.trans_dist::ReadReq              46190                       # Transaction distribution
system.tol2bus.trans_dist::ReadResp             46190                       # Transaction distribution
system.tol2bus.trans_dist::Writeback            44447                       # Transaction distribution
system.tol2bus.trans_dist::UpgradeReq             114                       # Transaction distribution
system.tol2bus.trans_dist::SCUpgradeReq             6                       # Transaction distribution
system.tol2bus.trans_dist::UpgradeResp            120                       # Transaction distribution
system.tol2bus.trans_dist::ReadExReq              902                       # Transaction distribution
system.tol2bus.trans_dist::ReadExResp             902                       # Transaction distribution
system.tol2bus.pkt_count_system.cpu0.icache.mem_side::system.l2.cpu_side          768                       # Packet count per connected master and slave (bytes)
system.tol2bus.pkt_count_system.cpu0.dcache.mem_side::system.l2.cpu_side          630                       # Packet count per connected master and slave (bytes)
system.tol2bus.pkt_count_system.cpu1.icache.mem_side::system.l2.cpu_side          920                       # Packet count per connected master and slave (bytes)
system.tol2bus.pkt_count_system.cpu1.dcache.mem_side::system.l2.cpu_side       135577                       # Packet count per connected master and slave (bytes)
system.tol2bus.pkt_count::total                137895                       # Packet count per connected master and slave (bytes)
system.tol2bus.pkt_size_system.cpu0.icache.mem_side::system.l2.cpu_side        24576                       # Cumulative packet size per connected master and slave (bytes)
system.tol2bus.pkt_size_system.cpu0.dcache.mem_side::system.l2.cpu_side        20224                       # Cumulative packet size per connected master and slave (bytes)
system.tol2bus.pkt_size_system.cpu1.icache.mem_side::system.l2.cpu_side        29440                       # Cumulative packet size per connected master and slave (bytes)
system.tol2bus.pkt_size_system.cpu1.dcache.mem_side::system.l2.cpu_side      5729344                       # Cumulative packet size per connected master and slave (bytes)
system.tol2bus.pkt_size::total                5803584                       # Cumulative packet size per connected master and slave (bytes)
system.tol2bus.snoops                             976                       # Total snoops (count)
system.tol2bus.snoop_fanout::samples            91659                       # Request fanout histogram
system.tol2bus.snoop_fanout::mean                   3                       # Request fanout histogram
system.tol2bus.snoop_fanout::stdev                  0                       # Request fanout histogram
system.tol2bus.snoop_fanout::underflows             0      0.00%      0.00% # Request fanout histogram
system.tol2bus.snoop_fanout::0                      0      0.00%      0.00% # Request fanout histogram
system.tol2bus.snoop_fanout::1                      0      0.00%      0.00% # Request fanout histogram
system.tol2bus.snoop_fanout::2                      0      0.00%      0.00% # Request fanout histogram
system.tol2bus.snoop_fanout::3                  91659    100.00%    100.00% # Request fanout histogram
system.tol2bus.snoop_fanout::4                      0      0.00%    100.00% # Request fanout histogram
system.tol2bus.snoop_fanout::overflows              0      0.00%    100.00% # Request fanout histogram
system.tol2bus.snoop_fanout::min_value              3                       # Request fanout histogram
system.tol2bus.snoop_fanout::max_value              3                       # Request fanout histogram
system.tol2bus.snoop_fanout::total              91659                       # Request fanout histogram
system.tol2bus.reqLayer0.occupancy           90276999                       # Layer occupancy (ticks)
system.tol2bus.reqLayer0.utilization              0.5                       # Layer utilization (%)
system.tol2bus.respLayer0.occupancy            576998                       # Layer occupancy (ticks)
system.tol2bus.respLayer0.utilization             0.0                       # Layer utilization (%)
system.tol2bus.respLayer1.occupancy            468495                       # Layer occupancy (ticks)
system.tol2bus.respLayer1.utilization             0.0                       # Layer utilization (%)
system.tol2bus.respLayer4.occupancy            690000                       # Layer occupancy (ticks)
system.tol2bus.respLayer4.utilization             0.0                       # Layer utilization (%)
system.tol2bus.respLayer5.occupancy          68966500                       # Layer occupancy (ticks)
system.tol2bus.respLayer5.utilization             0.4                       # Layer utilization (%)

---------- End Simulation Statistics   ----------
