
---------- Begin Simulation Statistics ----------
sim_seconds                                  0.000027                       # Number of seconds simulated
sim_ticks                                    27261000                       # Number of ticks simulated
final_tick                                   27261000                       # Number of ticks from beginning of simulation (restored from checkpoints and never reset)
sim_freq                                 1000000000000                       # Frequency of simulated ticks
host_inst_rate                                 159944                       # Simulator instruction rate (inst/s)
host_op_rate                                   180696                       # Simulator op (including micro ops) rate (op/s)
host_tick_rate                              195126243                       # Simulator tick rate (ticks/s)
host_mem_usage                                 683232                       # Number of bytes of host memory used
host_seconds                                     0.14                       # Real time elapsed on the host
sim_insts                                       22342                       # Number of instructions simulated
sim_ops                                         25243                       # Number of ops (including micro ops) simulated
system.voltage_domain.voltage                       1                       # Voltage in Volts
system.clk_domain.clock                          1000                       # Clock period in ticks
system.physmem.bytes_read::cpu0.inst            12544                       # Number of bytes read from this memory
system.physmem.bytes_read::cpu0.data            39360                       # Number of bytes read from this memory
system.physmem.bytes_read::total                51904                       # Number of bytes read from this memory
system.physmem.bytes_inst_read::cpu0.inst        12544                       # Number of instructions bytes read from this memory
system.physmem.bytes_inst_read::total           12544                       # Number of instructions bytes read from this memory
system.physmem.num_reads::cpu0.inst               196                       # Number of read requests responded to by this memory
system.physmem.num_reads::cpu0.data               615                       # Number of read requests responded to by this memory
system.physmem.num_reads::total                   811                       # Number of read requests responded to by this memory
system.physmem.bw_read::cpu0.inst           460144529                       # Total read bandwidth from this memory (bytes/s)
system.physmem.bw_read::cpu0.data          1443820843                       # Total read bandwidth from this memory (bytes/s)
system.physmem.bw_read::total              1903965372                       # Total read bandwidth from this memory (bytes/s)
system.physmem.bw_inst_read::cpu0.inst      460144529                       # Instruction read bandwidth from this memory (bytes/s)
system.physmem.bw_inst_read::total          460144529                       # Instruction read bandwidth from this memory (bytes/s)
system.physmem.bw_total::cpu0.inst          460144529                       # Total bandwidth to/from this memory (bytes/s)
system.physmem.bw_total::cpu0.data         1443820843                       # Total bandwidth to/from this memory (bytes/s)
system.physmem.bw_total::total             1903965372                       # Total bandwidth to/from this memory (bytes/s)
system.cpu0.branchPred.lookups                   6421                       # Number of BP lookups
system.cpu0.branchPred.condPredicted             3620                       # Number of conditional branches predicted
system.cpu0.branchPred.condIncorrect              502                       # Number of conditional branches incorrect
system.cpu0.branchPred.BTBLookups                2880                       # Number of BTB lookups
system.cpu0.branchPred.BTBHits                   2581                       # Number of BTB hits
system.cpu0.branchPred.BTBCorrect                   0                       # Number of correct BTB predictions (this stat may not work properly.
system.cpu0.branchPred.BTBHitPct            89.618056                       # BTB Hit Percentage
system.cpu0.branchPred.usedRAS                   1289                       # Number of times the RAS was used to get a target.
system.cpu0.branchPred.RASInCorrect                36                       # Number of incorrect RAS predictions.
system.cpu0.dstage2_mmu.stage2_tlb.walker.walks            0                       # Table walker walks requested
system.cpu0.dstage2_mmu.stage2_tlb.walker.walkRequestOrigin_Requested::Data            0                       # Table walker requests started/completed, data/inst
system.cpu0.dstage2_mmu.stage2_tlb.walker.walkRequestOrigin_Requested::Inst            0                       # Table walker requests started/completed, data/inst
system.cpu0.dstage2_mmu.stage2_tlb.walker.walkRequestOrigin_Requested::total            0                       # Table walker requests started/completed, data/inst
system.cpu0.dstage2_mmu.stage2_tlb.walker.walkRequestOrigin_Completed::Data            0                       # Table walker requests started/completed, data/inst
system.cpu0.dstage2_mmu.stage2_tlb.walker.walkRequestOrigin_Completed::Inst            0                       # Table walker requests started/completed, data/inst
system.cpu0.dstage2_mmu.stage2_tlb.walker.walkRequestOrigin_Completed::total            0                       # Table walker requests started/completed, data/inst
system.cpu0.dstage2_mmu.stage2_tlb.walker.walkRequestOrigin::total            0                       # Table walker requests started/completed, data/inst
system.cpu0.dstage2_mmu.stage2_tlb.inst_hits            0                       # ITB inst hits
system.cpu0.dstage2_mmu.stage2_tlb.inst_misses            0                       # ITB inst misses
system.cpu0.dstage2_mmu.stage2_tlb.read_hits            0                       # DTB read hits
system.cpu0.dstage2_mmu.stage2_tlb.read_misses            0                       # DTB read misses
system.cpu0.dstage2_mmu.stage2_tlb.write_hits            0                       # DTB write hits
system.cpu0.dstage2_mmu.stage2_tlb.write_misses            0                       # DTB write misses
system.cpu0.dstage2_mmu.stage2_tlb.flush_tlb            0                       # Number of times complete TLB was flushed
system.cpu0.dstage2_mmu.stage2_tlb.flush_tlb_mva            0                       # Number of times TLB was flushed by MVA
system.cpu0.dstage2_mmu.stage2_tlb.flush_tlb_mva_asid            0                       # Number of times TLB was flushed by MVA & ASID
system.cpu0.dstage2_mmu.stage2_tlb.flush_tlb_asid            0                       # Number of times TLB was flushed by ASID
system.cpu0.dstage2_mmu.stage2_tlb.flush_entries            0                       # Number of entries that have been flushed from TLB
system.cpu0.dstage2_mmu.stage2_tlb.align_faults            0                       # Number of TLB faults due to alignment restrictions
system.cpu0.dstage2_mmu.stage2_tlb.prefetch_faults            0                       # Number of TLB faults due to prefetch
system.cpu0.dstage2_mmu.stage2_tlb.domain_faults            0                       # Number of TLB faults due to domain restrictions
system.cpu0.dstage2_mmu.stage2_tlb.perms_faults            0                       # Number of TLB faults due to permissions restrictions
system.cpu0.dstage2_mmu.stage2_tlb.read_accesses            0                       # DTB read accesses
system.cpu0.dstage2_mmu.stage2_tlb.write_accesses            0                       # DTB write accesses
system.cpu0.dstage2_mmu.stage2_tlb.inst_accesses            0                       # ITB inst accesses
system.cpu0.dstage2_mmu.stage2_tlb.hits             0                       # DTB hits
system.cpu0.dstage2_mmu.stage2_tlb.misses            0                       # DTB misses
system.cpu0.dstage2_mmu.stage2_tlb.accesses            0                       # DTB accesses
system.cpu0.dtb.walker.walks                        0                       # Table walker walks requested
system.cpu0.dtb.walker.walkRequestOrigin_Requested::Data            0                       # Table walker requests started/completed, data/inst
system.cpu0.dtb.walker.walkRequestOrigin_Requested::Inst            0                       # Table walker requests started/completed, data/inst
system.cpu0.dtb.walker.walkRequestOrigin_Requested::total            0                       # Table walker requests started/completed, data/inst
system.cpu0.dtb.walker.walkRequestOrigin_Completed::Data            0                       # Table walker requests started/completed, data/inst
system.cpu0.dtb.walker.walkRequestOrigin_Completed::Inst            0                       # Table walker requests started/completed, data/inst
system.cpu0.dtb.walker.walkRequestOrigin_Completed::total            0                       # Table walker requests started/completed, data/inst
system.cpu0.dtb.walker.walkRequestOrigin::total            0                       # Table walker requests started/completed, data/inst
system.cpu0.dtb.inst_hits                           0                       # ITB inst hits
system.cpu0.dtb.inst_misses                         0                       # ITB inst misses
system.cpu0.dtb.read_hits                           0                       # DTB read hits
system.cpu0.dtb.read_misses                         0                       # DTB read misses
system.cpu0.dtb.write_hits                          0                       # DTB write hits
system.cpu0.dtb.write_misses                        0                       # DTB write misses
system.cpu0.dtb.flush_tlb                           0                       # Number of times complete TLB was flushed
system.cpu0.dtb.flush_tlb_mva                       0                       # Number of times TLB was flushed by MVA
system.cpu0.dtb.flush_tlb_mva_asid                  0                       # Number of times TLB was flushed by MVA & ASID
system.cpu0.dtb.flush_tlb_asid                      0                       # Number of times TLB was flushed by ASID
system.cpu0.dtb.flush_entries                       0                       # Number of entries that have been flushed from TLB
system.cpu0.dtb.align_faults                        0                       # Number of TLB faults due to alignment restrictions
system.cpu0.dtb.prefetch_faults                     0                       # Number of TLB faults due to prefetch
system.cpu0.dtb.domain_faults                       0                       # Number of TLB faults due to domain restrictions
system.cpu0.dtb.perms_faults                        0                       # Number of TLB faults due to permissions restrictions
system.cpu0.dtb.read_accesses                       0                       # DTB read accesses
system.cpu0.dtb.write_accesses                      0                       # DTB write accesses
system.cpu0.dtb.inst_accesses                       0                       # ITB inst accesses
system.cpu0.dtb.hits                                0                       # DTB hits
system.cpu0.dtb.misses                              0                       # DTB misses
system.cpu0.dtb.accesses                            0                       # DTB accesses
system.cpu0.istage2_mmu.stage2_tlb.walker.walks            0                       # Table walker walks requested
system.cpu0.istage2_mmu.stage2_tlb.walker.walkRequestOrigin_Requested::Data            0                       # Table walker requests started/completed, data/inst
system.cpu0.istage2_mmu.stage2_tlb.walker.walkRequestOrigin_Requested::Inst            0                       # Table walker requests started/completed, data/inst
system.cpu0.istage2_mmu.stage2_tlb.walker.walkRequestOrigin_Requested::total            0                       # Table walker requests started/completed, data/inst
system.cpu0.istage2_mmu.stage2_tlb.walker.walkRequestOrigin_Completed::Data            0                       # Table walker requests started/completed, data/inst
system.cpu0.istage2_mmu.stage2_tlb.walker.walkRequestOrigin_Completed::Inst            0                       # Table walker requests started/completed, data/inst
system.cpu0.istage2_mmu.stage2_tlb.walker.walkRequestOrigin_Completed::total            0                       # Table walker requests started/completed, data/inst
system.cpu0.istage2_mmu.stage2_tlb.walker.walkRequestOrigin::total            0                       # Table walker requests started/completed, data/inst
system.cpu0.istage2_mmu.stage2_tlb.inst_hits            0                       # ITB inst hits
system.cpu0.istage2_mmu.stage2_tlb.inst_misses            0                       # ITB inst misses
system.cpu0.istage2_mmu.stage2_tlb.read_hits            0                       # DTB read hits
system.cpu0.istage2_mmu.stage2_tlb.read_misses            0                       # DTB read misses
system.cpu0.istage2_mmu.stage2_tlb.write_hits            0                       # DTB write hits
system.cpu0.istage2_mmu.stage2_tlb.write_misses            0                       # DTB write misses
system.cpu0.istage2_mmu.stage2_tlb.flush_tlb            0                       # Number of times complete TLB was flushed
system.cpu0.istage2_mmu.stage2_tlb.flush_tlb_mva            0                       # Number of times TLB was flushed by MVA
system.cpu0.istage2_mmu.stage2_tlb.flush_tlb_mva_asid            0                       # Number of times TLB was flushed by MVA & ASID
system.cpu0.istage2_mmu.stage2_tlb.flush_tlb_asid            0                       # Number of times TLB was flushed by ASID
system.cpu0.istage2_mmu.stage2_tlb.flush_entries            0                       # Number of entries that have been flushed from TLB
system.cpu0.istage2_mmu.stage2_tlb.align_faults            0                       # Number of TLB faults due to alignment restrictions
system.cpu0.istage2_mmu.stage2_tlb.prefetch_faults            0                       # Number of TLB faults due to prefetch
system.cpu0.istage2_mmu.stage2_tlb.domain_faults            0                       # Number of TLB faults due to domain restrictions
system.cpu0.istage2_mmu.stage2_tlb.perms_faults            0                       # Number of TLB faults due to permissions restrictions
system.cpu0.istage2_mmu.stage2_tlb.read_accesses            0                       # DTB read accesses
system.cpu0.istage2_mmu.stage2_tlb.write_accesses            0                       # DTB write accesses
system.cpu0.istage2_mmu.stage2_tlb.inst_accesses            0                       # ITB inst accesses
system.cpu0.istage2_mmu.stage2_tlb.hits             0                       # DTB hits
system.cpu0.istage2_mmu.stage2_tlb.misses            0                       # DTB misses
system.cpu0.istage2_mmu.stage2_tlb.accesses            0                       # DTB accesses
system.cpu0.itb.walker.walks                        0                       # Table walker walks requested
system.cpu0.itb.walker.walkRequestOrigin_Requested::Data            0                       # Table walker requests started/completed, data/inst
system.cpu0.itb.walker.walkRequestOrigin_Requested::Inst            0                       # Table walker requests started/completed, data/inst
system.cpu0.itb.walker.walkRequestOrigin_Requested::total            0                       # Table walker requests started/completed, data/inst
system.cpu0.itb.walker.walkRequestOrigin_Completed::Data            0                       # Table walker requests started/completed, data/inst
system.cpu0.itb.walker.walkRequestOrigin_Completed::Inst            0                       # Table walker requests started/completed, data/inst
system.cpu0.itb.walker.walkRequestOrigin_Completed::total            0                       # Table walker requests started/completed, data/inst
system.cpu0.itb.walker.walkRequestOrigin::total            0                       # Table walker requests started/completed, data/inst
system.cpu0.itb.inst_hits                           0                       # ITB inst hits
system.cpu0.itb.inst_misses                         0                       # ITB inst misses
system.cpu0.itb.read_hits                           0                       # DTB read hits
system.cpu0.itb.read_misses                         0                       # DTB read misses
system.cpu0.itb.write_hits                          0                       # DTB write hits
system.cpu0.itb.write_misses                        0                       # DTB write misses
system.cpu0.itb.flush_tlb                           0                       # Number of times complete TLB was flushed
system.cpu0.itb.flush_tlb_mva                       0                       # Number of times TLB was flushed by MVA
system.cpu0.itb.flush_tlb_mva_asid                  0                       # Number of times TLB was flushed by MVA & ASID
system.cpu0.itb.flush_tlb_asid                      0                       # Number of times TLB was flushed by ASID
system.cpu0.itb.flush_entries                       0                       # Number of entries that have been flushed from TLB
system.cpu0.itb.align_faults                        0                       # Number of TLB faults due to alignment restrictions
system.cpu0.itb.prefetch_faults                     0                       # Number of TLB faults due to prefetch
system.cpu0.itb.domain_faults                       0                       # Number of TLB faults due to domain restrictions
system.cpu0.itb.perms_faults                        0                       # Number of TLB faults due to permissions restrictions
system.cpu0.itb.read_accesses                       0                       # DTB read accesses
system.cpu0.itb.write_accesses                      0                       # DTB write accesses
system.cpu0.itb.inst_accesses                       0                       # ITB inst accesses
system.cpu0.itb.hits                                0                       # DTB hits
system.cpu0.itb.misses                              0                       # DTB misses
system.cpu0.itb.accesses                            0                       # DTB accesses
system.cpu0.workload.num_syscalls                   5                       # Number of system calls
system.cpu0.numCycles                           27262                       # number of cpu cycles simulated
system.cpu0.numWorkItemsStarted                     0                       # number of work items this cpu started
system.cpu0.numWorkItemsCompleted                   0                       # number of work items this cpu completed
system.cpu0.fetch.icacheStallCycles              7783                       # Number of cycles fetch is stalled on an Icache miss
system.cpu0.fetch.Insts                         28573                       # Number of instructions fetch has processed
system.cpu0.fetch.Branches                       6421                       # Number of branches that fetch encountered
system.cpu0.fetch.predictedBranches              3870                       # Number of branches that fetch has predicted taken
system.cpu0.fetch.Cycles                        14622                       # Number of cycles fetch has run and was not squashing or blocked
system.cpu0.fetch.SquashCycles                   1032                       # Number of cycles fetch has spent squashing
system.cpu0.fetch.PendingTrapStallCycles          156                       # Number of stall cycles due to pending traps
system.cpu0.fetch.CacheLines                     4045                       # Number of cache lines fetched
system.cpu0.fetch.IcacheSquashes                  189                       # Number of outstanding Icache misses that were squashed
system.cpu0.fetch.rateDist::samples             23077                       # Number of instructions fetched each cycle (Total)
system.cpu0.fetch.rateDist::mean             1.412445                       # Number of instructions fetched each cycle (Total)
system.cpu0.fetch.rateDist::stdev            1.400486                       # Number of instructions fetched each cycle (Total)
system.cpu0.fetch.rateDist::underflows              0      0.00%      0.00% # Number of instructions fetched each cycle (Total)
system.cpu0.fetch.rateDist::0                   10607     45.96%     45.96% # Number of instructions fetched each cycle (Total)
system.cpu0.fetch.rateDist::1                    1572      6.81%     52.78% # Number of instructions fetched each cycle (Total)
system.cpu0.fetch.rateDist::2                    1671      7.24%     60.02% # Number of instructions fetched each cycle (Total)
system.cpu0.fetch.rateDist::3                    9227     39.98%    100.00% # Number of instructions fetched each cycle (Total)
system.cpu0.fetch.rateDist::overflows               0      0.00%    100.00% # Number of instructions fetched each cycle (Total)
system.cpu0.fetch.rateDist::min_value               0                       # Number of instructions fetched each cycle (Total)
system.cpu0.fetch.rateDist::max_value               3                       # Number of instructions fetched each cycle (Total)
system.cpu0.fetch.rateDist::total               23077                       # Number of instructions fetched each cycle (Total)
system.cpu0.fetch.branchRate                 0.235529                       # Number of branch fetches per cycle
system.cpu0.fetch.rate                       1.048089                       # Number of inst fetches per cycle
system.cpu0.decode.IdleCycles                    7071                       # Number of cycles decode is idle
system.cpu0.decode.BlockedCycles                 3904                       # Number of cycles decode is blocked
system.cpu0.decode.RunCycles                    11219                       # Number of cycles decode is running
system.cpu0.decode.UnblockCycles                  488                       # Number of cycles decode is unblocking
system.cpu0.decode.SquashCycles                   395                       # Number of cycles decode is squashing
system.cpu0.decode.BranchResolved                1308                       # Number of times decode resolved a branch
system.cpu0.decode.BranchMispred                  137                       # Number of times decode detected a branch misprediction
system.cpu0.decode.DecodedInsts                 30594                       # Number of instructions handled by decode
system.cpu0.decode.SquashedInsts                  272                       # Number of squashed instructions handled by decode
system.cpu0.rename.SquashCycles                   395                       # Number of cycles rename is squashing
system.cpu0.rename.IdleCycles                    7541                       # Number of cycles rename is idle
system.cpu0.rename.BlockCycles                    361                       # Number of cycles rename is blocking
system.cpu0.rename.serializeStallCycles          1181                       # count of cycles rename stalled for serializing inst
system.cpu0.rename.RunCycles                    11158                       # Number of cycles rename is running
system.cpu0.rename.UnblockCycles                 2441                       # Number of cycles rename is unblocking
system.cpu0.rename.RenamedInsts                 29912                       # Number of instructions processed by rename
system.cpu0.rename.SQFullEvents                  2349                       # Number of times rename has blocked due to SQ full
system.cpu0.rename.RenamedOperands              31473                       # Number of destination operands rename has renamed
system.cpu0.rename.RenameLookups               134148                       # Number of register rename lookups that rename has made
system.cpu0.rename.int_rename_lookups           33404                       # Number of integer rename lookups
system.cpu0.rename.fp_rename_lookups               16                       # Number of floating rename lookups
system.cpu0.rename.CommittedMaps                26193                       # Number of HB maps that are committed
system.cpu0.rename.UndoneMaps                    5279                       # Number of HB maps that are undone due to squashing
system.cpu0.rename.serializingInsts                32                       # count of serializing insts renamed
system.cpu0.rename.tempSerializingInsts            32                       # count of temporary serializing insts renamed
system.cpu0.rename.skidInsts                     1015                       # count of insts added to the skid buffer
system.cpu0.memDep0.insertedLoads                2865                       # Number of loads inserted to the mem dependence unit.
system.cpu0.memDep0.insertedStores               4443                       # Number of stores inserted to the mem dependence unit.
system.cpu0.memDep0.conflictingLoads               30                       # Number of conflicting loads.
system.cpu0.memDep0.conflictingStores               8                       # Number of conflicting stores.
system.cpu0.iq.iqInstsAdded                     28587                       # Number of instructions added to the IQ (excludes non-spec)
system.cpu0.iq.iqNonSpecInstsAdded                 48                       # Number of non-speculative instructions added to the IQ
system.cpu0.iq.iqInstsIssued                    27335                       # Number of instructions issued
system.cpu0.iq.iqSquashedInstsIssued               54                       # Number of squashed instructions issued
system.cpu0.iq.iqSquashedInstsExamined           3391                       # Number of squashed instructions iterated over during squash; mainly for profiling
system.cpu0.iq.iqSquashedOperandsExamined         9228                       # Number of squashed operands that are examined and possibly removed from graph
system.cpu0.iq.iqSquashedNonSpecRemoved             4                       # Number of squashed non-spec instructions that were removed
system.cpu0.iq.issued_per_cycle::samples        23077                       # Number of insts issued each cycle
system.cpu0.iq.issued_per_cycle::mean        1.184513                       # Number of insts issued each cycle
system.cpu0.iq.issued_per_cycle::stdev       1.222307                       # Number of insts issued each cycle
system.cpu0.iq.issued_per_cycle::underflows            0      0.00%      0.00% # Number of insts issued each cycle
system.cpu0.iq.issued_per_cycle::0              10074     43.65%     43.65% # Number of insts issued each cycle
system.cpu0.iq.issued_per_cycle::1               4099     17.76%     61.42% # Number of insts issued each cycle
system.cpu0.iq.issued_per_cycle::2               3476     15.06%     76.48% # Number of insts issued each cycle
system.cpu0.iq.issued_per_cycle::3               5428     23.52%    100.00% # Number of insts issued each cycle
system.cpu0.iq.issued_per_cycle::overflows            0      0.00%    100.00% # Number of insts issued each cycle
system.cpu0.iq.issued_per_cycle::min_value            0                       # Number of insts issued each cycle
system.cpu0.iq.issued_per_cycle::max_value            3                       # Number of insts issued each cycle
system.cpu0.iq.issued_per_cycle::total          23077                       # Number of insts issued each cycle
system.cpu0.iq.fu_full::No_OpClass                  0                       # attempts to use FU when none available
system.cpu0.iq.fu_full::IntAlu                      0                       # attempts to use FU when none available
system.cpu0.iq.fu_full::IntMult                     0                       # attempts to use FU when none available
system.cpu0.iq.fu_full::IntDiv                      0                       # attempts to use FU when none available
system.cpu0.iq.fu_full::FloatAdd                    0                       # attempts to use FU when none available
system.cpu0.iq.fu_full::FloatCmp                    0                       # attempts to use FU when none available
system.cpu0.iq.fu_full::FloatCvt                    0                       # attempts to use FU when none available
system.cpu0.iq.fu_full::FloatMult                   0                       # attempts to use FU when none available
system.cpu0.iq.fu_full::FloatDiv                    0                       # attempts to use FU when none available
system.cpu0.iq.fu_full::FloatSqrt                   0                       # attempts to use FU when none available
system.cpu0.iq.fu_full::SimdAdd                     0                       # attempts to use FU when none available
system.cpu0.iq.fu_full::SimdAddAcc                  0                       # attempts to use FU when none available
system.cpu0.iq.fu_full::SimdAlu                     0                       # attempts to use FU when none available
system.cpu0.iq.fu_full::SimdCmp                     0                       # attempts to use FU when none available
system.cpu0.iq.fu_full::SimdCvt                     0                       # attempts to use FU when none available
system.cpu0.iq.fu_full::SimdMisc                    0                       # attempts to use FU when none available
system.cpu0.iq.fu_full::SimdMult                    0                       # attempts to use FU when none available
system.cpu0.iq.fu_full::SimdMultAcc                 0                       # attempts to use FU when none available
system.cpu0.iq.fu_full::SimdShift                   0                       # attempts to use FU when none available
system.cpu0.iq.fu_full::SimdShiftAcc                0                       # attempts to use FU when none available
system.cpu0.iq.fu_full::SimdSqrt                    0                       # attempts to use FU when none available
system.cpu0.iq.fu_full::SimdFloatAdd                0                       # attempts to use FU when none available
system.cpu0.iq.fu_full::SimdFloatAlu                0                       # attempts to use FU when none available
system.cpu0.iq.fu_full::SimdFloatCmp                0                       # attempts to use FU when none available
system.cpu0.iq.fu_full::SimdFloatCvt                0                       # attempts to use FU when none available
system.cpu0.iq.fu_full::SimdFloatDiv                0                       # attempts to use FU when none available
system.cpu0.iq.fu_full::SimdFloatMisc               0                       # attempts to use FU when none available
system.cpu0.iq.fu_full::SimdFloatMult               0                       # attempts to use FU when none available
system.cpu0.iq.fu_full::SimdFloatMultAcc            0                       # attempts to use FU when none available
system.cpu0.iq.fu_full::SimdFloatSqrt               0                       # attempts to use FU when none available
system.cpu0.iq.fu_full::MemRead                     0                       # attempts to use FU when none available
system.cpu0.iq.fu_full::MemWrite                    0                       # attempts to use FU when none available
system.cpu0.iq.fu_full::IprAccess                   0                       # attempts to use FU when none available
system.cpu0.iq.fu_full::InstPrefetch                0                       # attempts to use FU when none available
system.cpu0.iq.FU_type_0::No_OpClass                0      0.00%      0.00% # Type of FU issued
system.cpu0.iq.FU_type_0::IntAlu                20356     74.47%     74.47% # Type of FU issued
system.cpu0.iq.FU_type_0::IntMult                   1      0.00%     74.47% # Type of FU issued
system.cpu0.iq.FU_type_0::IntDiv                    0      0.00%     74.47% # Type of FU issued
system.cpu0.iq.FU_type_0::FloatAdd                  0      0.00%     74.47% # Type of FU issued
system.cpu0.iq.FU_type_0::FloatCmp                  0      0.00%     74.47% # Type of FU issued
system.cpu0.iq.FU_type_0::FloatCvt                  0      0.00%     74.47% # Type of FU issued
system.cpu0.iq.FU_type_0::FloatMult                 0      0.00%     74.47% # Type of FU issued
system.cpu0.iq.FU_type_0::FloatDiv                  0      0.00%     74.47% # Type of FU issued
system.cpu0.iq.FU_type_0::FloatSqrt                 0      0.00%     74.47% # Type of FU issued
system.cpu0.iq.FU_type_0::SimdAdd                   0      0.00%     74.47% # Type of FU issued
system.cpu0.iq.FU_type_0::SimdAddAcc                0      0.00%     74.47% # Type of FU issued
system.cpu0.iq.FU_type_0::SimdAlu                   0      0.00%     74.47% # Type of FU issued
system.cpu0.iq.FU_type_0::SimdCmp                   0      0.00%     74.47% # Type of FU issued
system.cpu0.iq.FU_type_0::SimdCvt                   0      0.00%     74.47% # Type of FU issued
system.cpu0.iq.FU_type_0::SimdMisc                  0      0.00%     74.47% # Type of FU issued
system.cpu0.iq.FU_type_0::SimdMult                  0      0.00%     74.47% # Type of FU issued
system.cpu0.iq.FU_type_0::SimdMultAcc               0      0.00%     74.47% # Type of FU issued
system.cpu0.iq.FU_type_0::SimdShift                 0      0.00%     74.47% # Type of FU issued
system.cpu0.iq.FU_type_0::SimdShiftAcc              0      0.00%     74.47% # Type of FU issued
system.cpu0.iq.FU_type_0::SimdSqrt                  0      0.00%     74.47% # Type of FU issued
system.cpu0.iq.FU_type_0::SimdFloatAdd              0      0.00%     74.47% # Type of FU issued
system.cpu0.iq.FU_type_0::SimdFloatAlu              0      0.00%     74.47% # Type of FU issued
system.cpu0.iq.FU_type_0::SimdFloatCmp              0      0.00%     74.47% # Type of FU issued
system.cpu0.iq.FU_type_0::SimdFloatCvt              0      0.00%     74.47% # Type of FU issued
system.cpu0.iq.FU_type_0::SimdFloatDiv              0      0.00%     74.47% # Type of FU issued
system.cpu0.iq.FU_type_0::SimdFloatMisc             3      0.01%     74.48% # Type of FU issued
system.cpu0.iq.FU_type_0::SimdFloatMult             0      0.00%     74.48% # Type of FU issued
system.cpu0.iq.FU_type_0::SimdFloatMultAcc            0      0.00%     74.48% # Type of FU issued
system.cpu0.iq.FU_type_0::SimdFloatSqrt             0      0.00%     74.48% # Type of FU issued
system.cpu0.iq.FU_type_0::MemRead                2711      9.92%     84.40% # Type of FU issued
system.cpu0.iq.FU_type_0::MemWrite               4264     15.60%    100.00% # Type of FU issued
system.cpu0.iq.FU_type_0::IprAccess                 0      0.00%    100.00% # Type of FU issued
system.cpu0.iq.FU_type_0::InstPrefetch              0      0.00%    100.00% # Type of FU issued
system.cpu0.iq.FU_type_0::total                 27335                       # Type of FU issued
system.cpu0.iq.rate                          1.002678                       # Inst issue rate
system.cpu0.iq.fu_busy_cnt                          0                       # FU busy when requested
system.cpu0.iq.fu_busy_rate                         0                       # FU busy rate (busy events/executed inst)
system.cpu0.iq.int_inst_queue_reads             77769                       # Number of integer instruction queue reads
system.cpu0.iq.int_inst_queue_writes            32020                       # Number of integer instruction queue writes
system.cpu0.iq.int_inst_queue_wakeup_accesses        26494                       # Number of integer instruction queue wakeup accesses
system.cpu0.iq.fp_inst_queue_reads                 32                       # Number of floating instruction queue reads
system.cpu0.iq.fp_inst_queue_writes                16                       # Number of floating instruction queue writes
system.cpu0.iq.fp_inst_queue_wakeup_accesses           16                       # Number of floating instruction queue wakeup accesses
system.cpu0.iq.int_alu_accesses                 27319                       # Number of integer alu accesses
system.cpu0.iq.fp_alu_accesses                     16                       # Number of floating point alu accesses
system.cpu0.iew.lsq.thread0.forwLoads              24                       # Number of loads that had data forwarded from stores
system.cpu0.iew.lsq.thread0.invAddrLoads            0                       # Number of loads ignored due to an invalid address
system.cpu0.iew.lsq.thread0.squashedLoads          853                       # Number of loads squashed
system.cpu0.iew.lsq.thread0.ignoredResponses            1                       # Number of memory responses ignored because the instruction is squashed
system.cpu0.iew.lsq.thread0.memOrderViolation           10                       # Number of memory ordering violations
system.cpu0.iew.lsq.thread0.squashedStores          384                       # Number of stores squashed
system.cpu0.iew.lsq.thread0.invAddrSwpfs            0                       # Number of software prefetches ignored due to an invalid address
system.cpu0.iew.lsq.thread0.blockedLoads            0                       # Number of blocked loads due to partial load-store forwarding
system.cpu0.iew.lsq.thread0.rescheduledLoads            0                       # Number of loads that were rescheduled
system.cpu0.iew.lsq.thread0.cacheBlocked            9                       # Number of times an access to memory failed due to the cache being blocked
system.cpu0.iew.iewIdleCycles                       0                       # Number of cycles IEW is idle
system.cpu0.iew.iewSquashCycles                   395                       # Number of cycles IEW is squashing
system.cpu0.iew.iewBlockCycles                    260                       # Number of cycles IEW is blocking
system.cpu0.iew.iewUnblockCycles                  105                       # Number of cycles IEW is unblocking
system.cpu0.iew.iewDispatchedInsts              28652                       # Number of instructions dispatched to IQ
system.cpu0.iew.iewDispSquashedInsts              332                       # Number of squashed instructions skipped by dispatch
system.cpu0.iew.iewDispLoadInsts                 2865                       # Number of dispatched load instructions
system.cpu0.iew.iewDispStoreInsts                4443                       # Number of dispatched store instructions
system.cpu0.iew.iewDispNonSpecInsts                29                       # Number of dispatched non-speculative instructions
system.cpu0.iew.iewIQFullEvents                     2                       # Number of times the IQ has become full, causing a stall
system.cpu0.iew.iewLSQFullEvents                    0                       # Number of times the LSQ has become full, causing a stall
system.cpu0.iew.memOrderViolationEvents            10                       # Number of memory order violations
system.cpu0.iew.predictedTakenIncorrect            53                       # Number of branches that were predicted taken incorrectly
system.cpu0.iew.predictedNotTakenIncorrect          340                       # Number of branches that were predicted not taken incorrectly
system.cpu0.iew.branchMispredicts                 393                       # Number of branch mispredicts detected at execute
system.cpu0.iew.iewExecutedInsts                26914                       # Number of executed instructions
system.cpu0.iew.iewExecLoadInsts                 2615                       # Number of load instructions executed
system.cpu0.iew.iewExecSquashedInsts              421                       # Number of squashed instructions skipped in execute
system.cpu0.iew.exec_swp                            0                       # number of swp insts executed
system.cpu0.iew.exec_nop                           17                       # number of nop insts executed
system.cpu0.iew.exec_refs                        6787                       # number of memory reference insts executed
system.cpu0.iew.exec_branches                    5458                       # Number of branches executed
system.cpu0.iew.exec_stores                      4172                       # Number of stores executed
system.cpu0.iew.exec_rate                    0.987235                       # Inst execution rate
system.cpu0.iew.wb_sent                         26582                       # cumulative count of insts sent to commit
system.cpu0.iew.wb_count                        26510                       # cumulative count of insts written-back
system.cpu0.iew.wb_producers                    13080                       # num instructions producing a value
system.cpu0.iew.wb_consumers                    22393                       # num instructions consuming a value
system.cpu0.iew.wb_penalized                        0                       # number of instrctions required to write to 'other' IQ
system.cpu0.iew.wb_rate                      0.972416                       # insts written-back per cycle
system.cpu0.iew.wb_fanout                    0.584111                       # average fanout of values written-back
system.cpu0.iew.wb_penalized_rate                   0                       # fraction of instructions written-back that wrote to 'other' IQ
system.cpu0.commit.commitSquashedInsts           3408                       # The number of squashed insts skipped by commit
system.cpu0.commit.commitNonSpecStalls             43                       # The number of times commit has been forced to stall to communicate backwards
system.cpu0.commit.branchMispredicts              381                       # The number of times a branch was mispredicted
system.cpu0.commit.committed_per_cycle::samples        22447                       # Number of insts commited each cycle
system.cpu0.commit.committed_per_cycle::mean     1.124560                       # Number of insts commited each cycle
system.cpu0.commit.committed_per_cycle::stdev     1.378830                       # Number of insts commited each cycle
system.cpu0.commit.committed_per_cycle::underflows            0      0.00%      0.00% # Number of insts commited each cycle
system.cpu0.commit.committed_per_cycle::0        10750     47.89%     47.89% # Number of insts commited each cycle
system.cpu0.commit.committed_per_cycle::1         4826     21.50%     69.39% # Number of insts commited each cycle
system.cpu0.commit.committed_per_cycle::2         1982      8.83%     78.22% # Number of insts commited each cycle
system.cpu0.commit.committed_per_cycle::3         3552     15.82%     94.04% # Number of insts commited each cycle
system.cpu0.commit.committed_per_cycle::4         1144      5.10%     99.14% # Number of insts commited each cycle
system.cpu0.commit.committed_per_cycle::5           73      0.33%     99.47% # Number of insts commited each cycle
system.cpu0.commit.committed_per_cycle::6           45      0.20%     99.67% # Number of insts commited each cycle
system.cpu0.commit.committed_per_cycle::7           14      0.06%     99.73% # Number of insts commited each cycle
system.cpu0.commit.committed_per_cycle::8           61      0.27%    100.00% # Number of insts commited each cycle
system.cpu0.commit.committed_per_cycle::overflows            0      0.00%    100.00% # Number of insts commited each cycle
system.cpu0.commit.committed_per_cycle::min_value            0                       # Number of insts commited each cycle
system.cpu0.commit.committed_per_cycle::max_value            8                       # Number of insts commited each cycle
system.cpu0.commit.committed_per_cycle::total        22447                       # Number of insts commited each cycle
system.cpu0.commit.committedInsts               22342                       # Number of instructions committed
system.cpu0.commit.committedOps                 25243                       # Number of ops (including micro ops) committed
system.cpu0.commit.swp_count                        0                       # Number of s/w prefetches committed
system.cpu0.commit.refs                          6070                       # Number of memory references committed
system.cpu0.commit.loads                         2012                       # Number of loads committed
system.cpu0.commit.membars                         19                       # Number of memory barriers committed
system.cpu0.commit.branches                      5258                       # Number of branches committed
system.cpu0.commit.fp_insts                        16                       # Number of committed floating point instructions.
system.cpu0.commit.int_insts                    22265                       # Number of committed integer instructions.
system.cpu0.commit.function_calls                1108                       # Number of function calls committed.
system.cpu0.commit.op_class_0::No_OpClass            0      0.00%      0.00% # Class of committed instruction
system.cpu0.commit.op_class_0::IntAlu           19169     75.94%     75.94% # Class of committed instruction
system.cpu0.commit.op_class_0::IntMult              1      0.00%     75.94% # Class of committed instruction
system.cpu0.commit.op_class_0::IntDiv               0      0.00%     75.94% # Class of committed instruction
system.cpu0.commit.op_class_0::FloatAdd             0      0.00%     75.94% # Class of committed instruction
system.cpu0.commit.op_class_0::FloatCmp             0      0.00%     75.94% # Class of committed instruction
system.cpu0.commit.op_class_0::FloatCvt             0      0.00%     75.94% # Class of committed instruction
system.cpu0.commit.op_class_0::FloatMult            0      0.00%     75.94% # Class of committed instruction
system.cpu0.commit.op_class_0::FloatDiv             0      0.00%     75.94% # Class of committed instruction
system.cpu0.commit.op_class_0::FloatSqrt            0      0.00%     75.94% # Class of committed instruction
system.cpu0.commit.op_class_0::SimdAdd              0      0.00%     75.94% # Class of committed instruction
system.cpu0.commit.op_class_0::SimdAddAcc            0      0.00%     75.94% # Class of committed instruction
system.cpu0.commit.op_class_0::SimdAlu              0      0.00%     75.94% # Class of committed instruction
system.cpu0.commit.op_class_0::SimdCmp              0      0.00%     75.94% # Class of committed instruction
system.cpu0.commit.op_class_0::SimdCvt              0      0.00%     75.94% # Class of committed instruction
system.cpu0.commit.op_class_0::SimdMisc             0      0.00%     75.94% # Class of committed instruction
system.cpu0.commit.op_class_0::SimdMult             0      0.00%     75.94% # Class of committed instruction
system.cpu0.commit.op_class_0::SimdMultAcc            0      0.00%     75.94% # Class of committed instruction
system.cpu0.commit.op_class_0::SimdShift            0      0.00%     75.94% # Class of committed instruction
system.cpu0.commit.op_class_0::SimdShiftAcc            0      0.00%     75.94% # Class of committed instruction
system.cpu0.commit.op_class_0::SimdSqrt             0      0.00%     75.94% # Class of committed instruction
system.cpu0.commit.op_class_0::SimdFloatAdd            0      0.00%     75.94% # Class of committed instruction
system.cpu0.commit.op_class_0::SimdFloatAlu            0      0.00%     75.94% # Class of committed instruction
system.cpu0.commit.op_class_0::SimdFloatCmp            0      0.00%     75.94% # Class of committed instruction
system.cpu0.commit.op_class_0::SimdFloatCvt            0      0.00%     75.94% # Class of committed instruction
system.cpu0.commit.op_class_0::SimdFloatDiv            0      0.00%     75.94% # Class of committed instruction
system.cpu0.commit.op_class_0::SimdFloatMisc            3      0.01%     75.95% # Class of committed instruction
system.cpu0.commit.op_class_0::SimdFloatMult            0      0.00%     75.95% # Class of committed instruction
system.cpu0.commit.op_class_0::SimdFloatMultAcc            0      0.00%     75.95% # Class of committed instruction
system.cpu0.commit.op_class_0::SimdFloatSqrt            0      0.00%     75.95% # Class of committed instruction
system.cpu0.commit.op_class_0::MemRead           2012      7.97%     83.92% # Class of committed instruction
system.cpu0.commit.op_class_0::MemWrite          4058     16.08%    100.00% # Class of committed instruction
system.cpu0.commit.op_class_0::IprAccess            0      0.00%    100.00% # Class of committed instruction
system.cpu0.commit.op_class_0::InstPrefetch            0      0.00%    100.00% # Class of committed instruction
system.cpu0.commit.op_class_0::total            25243                       # Class of committed instruction
system.cpu0.commit.bw_lim_events                   61                       # number cycles where commit BW limit reached
system.cpu0.rob.rob_reads                       50971                       # The number of ROB reads
system.cpu0.rob.rob_writes                      57936                       # The number of ROB writes
system.cpu0.timesIdled                            136                       # Number of times that the entire CPU went into an idle state and unscheduled itself
system.cpu0.idleCycles                           4185                       # Total number of cycles that the CPU has spent unscheduled due to idling
system.cpu0.committedInsts                      22342                       # Number of Instructions Simulated
system.cpu0.committedOps                        25243                       # Number of Ops (including micro ops) Simulated
system.cpu0.cpi                              1.220213                       # CPI: Cycles Per Instruction
system.cpu0.cpi_total                        1.220213                       # CPI: Total CPI of All Threads
system.cpu0.ipc                              0.819529                       # IPC: Instructions Per Cycle
system.cpu0.ipc_total                        0.819529                       # IPC: Total IPC of All Threads
system.cpu0.int_regfile_reads                   27275                       # number of integer regfile reads
system.cpu0.int_regfile_writes                  15424                       # number of integer regfile writes
system.cpu0.fp_regfile_reads                       16                       # number of floating regfile reads
system.cpu0.cc_regfile_reads                    87325                       # number of cc regfile reads
system.cpu0.cc_regfile_writes                   12164                       # number of cc regfile writes
system.cpu0.misc_regfile_reads                   6729                       # number of misc regfile reads
system.cpu0.misc_regfile_writes                    40                       # number of misc regfile writes
system.cpu0.dcache.tags.replacements              144                       # number of replacements
system.cpu0.dcache.tags.tagsinuse          200.485357                       # Cycle average of tags in use
system.cpu0.dcache.tags.total_refs               2985                       # Total number of references to valid blocks.
system.cpu0.dcache.tags.sampled_refs              656                       # Sample count of references to valid blocks.
system.cpu0.dcache.tags.avg_refs             4.550305                       # Average number of references to valid blocks.
system.cpu0.dcache.tags.warmup_cycle         26923000                       # Cycle when the warmup percentage was hit.
system.cpu0.dcache.tags.occ_blocks::cpu0.data   200.485357                       # Average occupied blocks per requestor
system.cpu0.dcache.tags.occ_percent::cpu0.data     0.391573                       # Average percentage of cache occupancy
system.cpu0.dcache.tags.occ_percent::total     0.391573                       # Average percentage of cache occupancy
system.cpu0.dcache.tags.occ_task_id_blocks::1024          512                       # Occupied blocks per task id
system.cpu0.dcache.tags.age_task_id_blocks_1024::0          394                       # Occupied blocks per task id
system.cpu0.dcache.tags.age_task_id_blocks_1024::1          118                       # Occupied blocks per task id
system.cpu0.dcache.tags.occ_task_id_percent::1024            1                       # Percentage of cache occupancy per task id
system.cpu0.dcache.tags.tag_accesses            13612                       # Number of tag accesses
system.cpu0.dcache.tags.data_accesses           13612                       # Number of data accesses
system.cpu0.dcache.ReadReq_hits::cpu0.data         2284                       # number of ReadReq hits
system.cpu0.dcache.ReadReq_hits::total           2284                       # number of ReadReq hits
system.cpu0.dcache.WriteReq_hits::cpu0.data          667                       # number of WriteReq hits
system.cpu0.dcache.WriteReq_hits::total           667                       # number of WriteReq hits
system.cpu0.dcache.LoadLockedReq_hits::cpu0.data           16                       # number of LoadLockedReq hits
system.cpu0.dcache.LoadLockedReq_hits::total           16                       # number of LoadLockedReq hits
system.cpu0.dcache.StoreCondReq_hits::cpu0.data           18                       # number of StoreCondReq hits
system.cpu0.dcache.StoreCondReq_hits::total           18                       # number of StoreCondReq hits
system.cpu0.dcache.demand_hits::cpu0.data         2951                       # number of demand (read+write) hits
system.cpu0.dcache.demand_hits::total            2951                       # number of demand (read+write) hits
system.cpu0.dcache.overall_hits::cpu0.data         2951                       # number of overall hits
system.cpu0.dcache.overall_hits::total           2951                       # number of overall hits
system.cpu0.dcache.ReadReq_misses::cpu0.data          148                       # number of ReadReq misses
system.cpu0.dcache.ReadReq_misses::total          148                       # number of ReadReq misses
system.cpu0.dcache.WriteReq_misses::cpu0.data         3340                       # number of WriteReq misses
system.cpu0.dcache.WriteReq_misses::total         3340                       # number of WriteReq misses
system.cpu0.dcache.LoadLockedReq_misses::cpu0.data            5                       # number of LoadLockedReq misses
system.cpu0.dcache.LoadLockedReq_misses::total            5                       # number of LoadLockedReq misses
system.cpu0.dcache.demand_misses::cpu0.data         3488                       # number of demand (read+write) misses
system.cpu0.dcache.demand_misses::total          3488                       # number of demand (read+write) misses
system.cpu0.dcache.overall_misses::cpu0.data         3488                       # number of overall misses
system.cpu0.dcache.overall_misses::total         3488                       # number of overall misses
system.cpu0.dcache.ReadReq_miss_latency::cpu0.data      6327990                       # number of ReadReq miss cycles
system.cpu0.dcache.ReadReq_miss_latency::total      6327990                       # number of ReadReq miss cycles
system.cpu0.dcache.WriteReq_miss_latency::cpu0.data    165460499                       # number of WriteReq miss cycles
system.cpu0.dcache.WriteReq_miss_latency::total    165460499                       # number of WriteReq miss cycles
system.cpu0.dcache.LoadLockedReq_miss_latency::cpu0.data       171500                       # number of LoadLockedReq miss cycles
system.cpu0.dcache.LoadLockedReq_miss_latency::total       171500                       # number of LoadLockedReq miss cycles
system.cpu0.dcache.demand_miss_latency::cpu0.data    171788489                       # number of demand (read+write) miss cycles
system.cpu0.dcache.demand_miss_latency::total    171788489                       # number of demand (read+write) miss cycles
system.cpu0.dcache.overall_miss_latency::cpu0.data    171788489                       # number of overall miss cycles
system.cpu0.dcache.overall_miss_latency::total    171788489                       # number of overall miss cycles
system.cpu0.dcache.ReadReq_accesses::cpu0.data         2432                       # number of ReadReq accesses(hits+misses)
system.cpu0.dcache.ReadReq_accesses::total         2432                       # number of ReadReq accesses(hits+misses)
system.cpu0.dcache.WriteReq_accesses::cpu0.data         4007                       # number of WriteReq accesses(hits+misses)
system.cpu0.dcache.WriteReq_accesses::total         4007                       # number of WriteReq accesses(hits+misses)
system.cpu0.dcache.LoadLockedReq_accesses::cpu0.data           21                       # number of LoadLockedReq accesses(hits+misses)
system.cpu0.dcache.LoadLockedReq_accesses::total           21                       # number of LoadLockedReq accesses(hits+misses)
system.cpu0.dcache.StoreCondReq_accesses::cpu0.data           18                       # number of StoreCondReq accesses(hits+misses)
system.cpu0.dcache.StoreCondReq_accesses::total           18                       # number of StoreCondReq accesses(hits+misses)
system.cpu0.dcache.demand_accesses::cpu0.data         6439                       # number of demand (read+write) accesses
system.cpu0.dcache.demand_accesses::total         6439                       # number of demand (read+write) accesses
system.cpu0.dcache.overall_accesses::cpu0.data         6439                       # number of overall (read+write) accesses
system.cpu0.dcache.overall_accesses::total         6439                       # number of overall (read+write) accesses
system.cpu0.dcache.ReadReq_miss_rate::cpu0.data     0.060855                       # miss rate for ReadReq accesses
system.cpu0.dcache.ReadReq_miss_rate::total     0.060855                       # miss rate for ReadReq accesses
system.cpu0.dcache.WriteReq_miss_rate::cpu0.data     0.833541                       # miss rate for WriteReq accesses
system.cpu0.dcache.WriteReq_miss_rate::total     0.833541                       # miss rate for WriteReq accesses
system.cpu0.dcache.LoadLockedReq_miss_rate::cpu0.data     0.238095                       # miss rate for LoadLockedReq accesses
system.cpu0.dcache.LoadLockedReq_miss_rate::total     0.238095                       # miss rate for LoadLockedReq accesses
system.cpu0.dcache.demand_miss_rate::cpu0.data     0.541699                       # miss rate for demand accesses
system.cpu0.dcache.demand_miss_rate::total     0.541699                       # miss rate for demand accesses
system.cpu0.dcache.overall_miss_rate::cpu0.data     0.541699                       # miss rate for overall accesses
system.cpu0.dcache.overall_miss_rate::total     0.541699                       # miss rate for overall accesses
system.cpu0.dcache.ReadReq_avg_miss_latency::cpu0.data 42756.689189                       # average ReadReq miss latency
system.cpu0.dcache.ReadReq_avg_miss_latency::total 42756.689189                       # average ReadReq miss latency
system.cpu0.dcache.WriteReq_avg_miss_latency::cpu0.data 49539.071557                       # average WriteReq miss latency
system.cpu0.dcache.WriteReq_avg_miss_latency::total 49539.071557                       # average WriteReq miss latency
system.cpu0.dcache.LoadLockedReq_avg_miss_latency::cpu0.data        34300                       # average LoadLockedReq miss latency
system.cpu0.dcache.LoadLockedReq_avg_miss_latency::total        34300                       # average LoadLockedReq miss latency
system.cpu0.dcache.demand_avg_miss_latency::cpu0.data 49251.286984                       # average overall miss latency
system.cpu0.dcache.demand_avg_miss_latency::total 49251.286984                       # average overall miss latency
system.cpu0.dcache.overall_avg_miss_latency::cpu0.data 49251.286984                       # average overall miss latency
system.cpu0.dcache.overall_avg_miss_latency::total 49251.286984                       # average overall miss latency
system.cpu0.dcache.blocked_cycles::no_mshrs           64                       # number of cycles access was blocked
system.cpu0.dcache.blocked_cycles::no_targets            0                       # number of cycles access was blocked
system.cpu0.dcache.blocked::no_mshrs                4                       # number of cycles access was blocked
system.cpu0.dcache.blocked::no_targets              0                       # number of cycles access was blocked
system.cpu0.dcache.avg_blocked_cycles::no_mshrs           16                       # average number of cycles each access was blocked
system.cpu0.dcache.avg_blocked_cycles::no_targets          nan                       # average number of cycles each access was blocked
system.cpu0.dcache.fast_writes                      0                       # number of fast writes performed
system.cpu0.dcache.cache_copies                     0                       # number of cache copies performed
system.cpu0.dcache.writebacks::writebacks           76                       # number of writebacks
system.cpu0.dcache.writebacks::total               76                       # number of writebacks
system.cpu0.dcache.ReadReq_mshr_hits::cpu0.data           48                       # number of ReadReq MSHR hits
system.cpu0.dcache.ReadReq_mshr_hits::total           48                       # number of ReadReq MSHR hits
system.cpu0.dcache.WriteReq_mshr_hits::cpu0.data         2783                       # number of WriteReq MSHR hits
system.cpu0.dcache.WriteReq_mshr_hits::total         2783                       # number of WriteReq MSHR hits
system.cpu0.dcache.LoadLockedReq_mshr_hits::cpu0.data            5                       # number of LoadLockedReq MSHR hits
system.cpu0.dcache.LoadLockedReq_mshr_hits::total            5                       # number of LoadLockedReq MSHR hits
system.cpu0.dcache.demand_mshr_hits::cpu0.data         2831                       # number of demand (read+write) MSHR hits
system.cpu0.dcache.demand_mshr_hits::total         2831                       # number of demand (read+write) MSHR hits
system.cpu0.dcache.overall_mshr_hits::cpu0.data         2831                       # number of overall MSHR hits
system.cpu0.dcache.overall_mshr_hits::total         2831                       # number of overall MSHR hits
system.cpu0.dcache.ReadReq_mshr_misses::cpu0.data          100                       # number of ReadReq MSHR misses
system.cpu0.dcache.ReadReq_mshr_misses::total          100                       # number of ReadReq MSHR misses
system.cpu0.dcache.WriteReq_mshr_misses::cpu0.data          557                       # number of WriteReq MSHR misses
system.cpu0.dcache.WriteReq_mshr_misses::total          557                       # number of WriteReq MSHR misses
system.cpu0.dcache.demand_mshr_misses::cpu0.data          657                       # number of demand (read+write) MSHR misses
system.cpu0.dcache.demand_mshr_misses::total          657                       # number of demand (read+write) MSHR misses
system.cpu0.dcache.overall_mshr_misses::cpu0.data          657                       # number of overall MSHR misses
system.cpu0.dcache.overall_mshr_misses::total          657                       # number of overall MSHR misses
system.cpu0.dcache.ReadReq_mshr_miss_latency::cpu0.data      4315007                       # number of ReadReq MSHR miss cycles
system.cpu0.dcache.ReadReq_mshr_miss_latency::total      4315007                       # number of ReadReq MSHR miss cycles
system.cpu0.dcache.WriteReq_mshr_miss_latency::cpu0.data     30418500                       # number of WriteReq MSHR miss cycles
system.cpu0.dcache.WriteReq_mshr_miss_latency::total     30418500                       # number of WriteReq MSHR miss cycles
system.cpu0.dcache.demand_mshr_miss_latency::cpu0.data     34733507                       # number of demand (read+write) MSHR miss cycles
system.cpu0.dcache.demand_mshr_miss_latency::total     34733507                       # number of demand (read+write) MSHR miss cycles
system.cpu0.dcache.overall_mshr_miss_latency::cpu0.data     34733507                       # number of overall MSHR miss cycles
system.cpu0.dcache.overall_mshr_miss_latency::total     34733507                       # number of overall MSHR miss cycles
system.cpu0.dcache.ReadReq_mshr_miss_rate::cpu0.data     0.041118                       # mshr miss rate for ReadReq accesses
system.cpu0.dcache.ReadReq_mshr_miss_rate::total     0.041118                       # mshr miss rate for ReadReq accesses
system.cpu0.dcache.WriteReq_mshr_miss_rate::cpu0.data     0.139007                       # mshr miss rate for WriteReq accesses
system.cpu0.dcache.WriteReq_mshr_miss_rate::total     0.139007                       # mshr miss rate for WriteReq accesses
system.cpu0.dcache.demand_mshr_miss_rate::cpu0.data     0.102034                       # mshr miss rate for demand accesses
system.cpu0.dcache.demand_mshr_miss_rate::total     0.102034                       # mshr miss rate for demand accesses
system.cpu0.dcache.overall_mshr_miss_rate::cpu0.data     0.102034                       # mshr miss rate for overall accesses
system.cpu0.dcache.overall_mshr_miss_rate::total     0.102034                       # mshr miss rate for overall accesses
system.cpu0.dcache.ReadReq_avg_mshr_miss_latency::cpu0.data 43150.070000                       # average ReadReq mshr miss latency
system.cpu0.dcache.ReadReq_avg_mshr_miss_latency::total 43150.070000                       # average ReadReq mshr miss latency
system.cpu0.dcache.WriteReq_avg_mshr_miss_latency::cpu0.data 54611.310592                       # average WriteReq mshr miss latency
system.cpu0.dcache.WriteReq_avg_mshr_miss_latency::total 54611.310592                       # average WriteReq mshr miss latency
system.cpu0.dcache.demand_avg_mshr_miss_latency::cpu0.data 52866.829528                       # average overall mshr miss latency
system.cpu0.dcache.demand_avg_mshr_miss_latency::total 52866.829528                       # average overall mshr miss latency
system.cpu0.dcache.overall_avg_mshr_miss_latency::cpu0.data 52866.829528                       # average overall mshr miss latency
system.cpu0.dcache.overall_avg_mshr_miss_latency::total 52866.829528                       # average overall mshr miss latency
system.cpu0.dcache.no_allocate_misses               0                       # Number of misses that were no-allocate
system.cpu0.icache.tags.replacements               17                       # number of replacements
system.cpu0.icache.tags.tagsinuse          148.904224                       # Cycle average of tags in use
system.cpu0.icache.tags.total_refs               3780                       # Total number of references to valid blocks.
system.cpu0.icache.tags.sampled_refs              213                       # Sample count of references to valid blocks.
system.cpu0.icache.tags.avg_refs            17.746479                       # Average number of references to valid blocks.
system.cpu0.icache.tags.warmup_cycle                0                       # Cycle when the warmup percentage was hit.
system.cpu0.icache.tags.occ_blocks::cpu0.inst   148.904224                       # Average occupied blocks per requestor
system.cpu0.icache.tags.occ_percent::cpu0.inst     0.290829                       # Average percentage of cache occupancy
system.cpu0.icache.tags.occ_percent::total     0.290829                       # Average percentage of cache occupancy
system.cpu0.icache.tags.occ_task_id_blocks::1024          196                       # Occupied blocks per task id
system.cpu0.icache.tags.age_task_id_blocks_1024::0            5                       # Occupied blocks per task id
system.cpu0.icache.tags.age_task_id_blocks_1024::1          191                       # Occupied blocks per task id
system.cpu0.icache.tags.occ_task_id_percent::1024     0.382812                       # Percentage of cache occupancy per task id
system.cpu0.icache.tags.tag_accesses             8303                       # Number of tag accesses
system.cpu0.icache.tags.data_accesses            8303                       # Number of data accesses
system.cpu0.icache.ReadReq_hits::cpu0.inst         3780                       # number of ReadReq hits
system.cpu0.icache.ReadReq_hits::total           3780                       # number of ReadReq hits
system.cpu0.icache.demand_hits::cpu0.inst         3780                       # number of demand (read+write) hits
system.cpu0.icache.demand_hits::total            3780                       # number of demand (read+write) hits
system.cpu0.icache.overall_hits::cpu0.inst         3780                       # number of overall hits
system.cpu0.icache.overall_hits::total           3780                       # number of overall hits
system.cpu0.icache.ReadReq_misses::cpu0.inst          265                       # number of ReadReq misses
system.cpu0.icache.ReadReq_misses::total          265                       # number of ReadReq misses
system.cpu0.icache.demand_misses::cpu0.inst          265                       # number of demand (read+write) misses
system.cpu0.icache.demand_misses::total           265                       # number of demand (read+write) misses
system.cpu0.icache.overall_misses::cpu0.inst          265                       # number of overall misses
system.cpu0.icache.overall_misses::total          265                       # number of overall misses
system.cpu0.icache.ReadReq_miss_latency::cpu0.inst     13481999                       # number of ReadReq miss cycles
system.cpu0.icache.ReadReq_miss_latency::total     13481999                       # number of ReadReq miss cycles
system.cpu0.icache.demand_miss_latency::cpu0.inst     13481999                       # number of demand (read+write) miss cycles
system.cpu0.icache.demand_miss_latency::total     13481999                       # number of demand (read+write) miss cycles
system.cpu0.icache.overall_miss_latency::cpu0.inst     13481999                       # number of overall miss cycles
system.cpu0.icache.overall_miss_latency::total     13481999                       # number of overall miss cycles
system.cpu0.icache.ReadReq_accesses::cpu0.inst         4045                       # number of ReadReq accesses(hits+misses)
system.cpu0.icache.ReadReq_accesses::total         4045                       # number of ReadReq accesses(hits+misses)
system.cpu0.icache.demand_accesses::cpu0.inst         4045                       # number of demand (read+write) accesses
system.cpu0.icache.demand_accesses::total         4045                       # number of demand (read+write) accesses
system.cpu0.icache.overall_accesses::cpu0.inst         4045                       # number of overall (read+write) accesses
system.cpu0.icache.overall_accesses::total         4045                       # number of overall (read+write) accesses
system.cpu0.icache.ReadReq_miss_rate::cpu0.inst     0.065513                       # miss rate for ReadReq accesses
system.cpu0.icache.ReadReq_miss_rate::total     0.065513                       # miss rate for ReadReq accesses
system.cpu0.icache.demand_miss_rate::cpu0.inst     0.065513                       # miss rate for demand accesses
system.cpu0.icache.demand_miss_rate::total     0.065513                       # miss rate for demand accesses
system.cpu0.icache.overall_miss_rate::cpu0.inst     0.065513                       # miss rate for overall accesses
system.cpu0.icache.overall_miss_rate::total     0.065513                       # miss rate for overall accesses
system.cpu0.icache.ReadReq_avg_miss_latency::cpu0.inst 50875.467925                       # average ReadReq miss latency
system.cpu0.icache.ReadReq_avg_miss_latency::total 50875.467925                       # average ReadReq miss latency
system.cpu0.icache.demand_avg_miss_latency::cpu0.inst 50875.467925                       # average overall miss latency
system.cpu0.icache.demand_avg_miss_latency::total 50875.467925                       # average overall miss latency
system.cpu0.icache.overall_avg_miss_latency::cpu0.inst 50875.467925                       # average overall miss latency
system.cpu0.icache.overall_avg_miss_latency::total 50875.467925                       # average overall miss latency
system.cpu0.icache.blocked_cycles::no_mshrs           18                       # number of cycles access was blocked
system.cpu0.icache.blocked_cycles::no_targets            0                       # number of cycles access was blocked
system.cpu0.icache.blocked::no_mshrs                2                       # number of cycles access was blocked
system.cpu0.icache.blocked::no_targets              0                       # number of cycles access was blocked
system.cpu0.icache.avg_blocked_cycles::no_mshrs            9                       # average number of cycles each access was blocked
system.cpu0.icache.avg_blocked_cycles::no_targets          nan                       # average number of cycles each access was blocked
system.cpu0.icache.fast_writes                      0                       # number of fast writes performed
system.cpu0.icache.cache_copies                     0                       # number of cache copies performed
system.cpu0.icache.ReadReq_mshr_hits::cpu0.inst           52                       # number of ReadReq MSHR hits
system.cpu0.icache.ReadReq_mshr_hits::total           52                       # number of ReadReq MSHR hits
system.cpu0.icache.demand_mshr_hits::cpu0.inst           52                       # number of demand (read+write) MSHR hits
system.cpu0.icache.demand_mshr_hits::total           52                       # number of demand (read+write) MSHR hits
system.cpu0.icache.overall_mshr_hits::cpu0.inst           52                       # number of overall MSHR hits
system.cpu0.icache.overall_mshr_hits::total           52                       # number of overall MSHR hits
system.cpu0.icache.ReadReq_mshr_misses::cpu0.inst          213                       # number of ReadReq MSHR misses
system.cpu0.icache.ReadReq_mshr_misses::total          213                       # number of ReadReq MSHR misses
system.cpu0.icache.demand_mshr_misses::cpu0.inst          213                       # number of demand (read+write) MSHR misses
system.cpu0.icache.demand_mshr_misses::total          213                       # number of demand (read+write) MSHR misses
system.cpu0.icache.overall_mshr_misses::cpu0.inst          213                       # number of overall MSHR misses
system.cpu0.icache.overall_mshr_misses::total          213                       # number of overall MSHR misses
system.cpu0.icache.ReadReq_mshr_miss_latency::cpu0.inst     11143501                       # number of ReadReq MSHR miss cycles
system.cpu0.icache.ReadReq_mshr_miss_latency::total     11143501                       # number of ReadReq MSHR miss cycles
system.cpu0.icache.demand_mshr_miss_latency::cpu0.inst     11143501                       # number of demand (read+write) MSHR miss cycles
system.cpu0.icache.demand_mshr_miss_latency::total     11143501                       # number of demand (read+write) MSHR miss cycles
system.cpu0.icache.overall_mshr_miss_latency::cpu0.inst     11143501                       # number of overall MSHR miss cycles
system.cpu0.icache.overall_mshr_miss_latency::total     11143501                       # number of overall MSHR miss cycles
system.cpu0.icache.ReadReq_mshr_miss_rate::cpu0.inst     0.052658                       # mshr miss rate for ReadReq accesses
system.cpu0.icache.ReadReq_mshr_miss_rate::total     0.052658                       # mshr miss rate for ReadReq accesses
system.cpu0.icache.demand_mshr_miss_rate::cpu0.inst     0.052658                       # mshr miss rate for demand accesses
system.cpu0.icache.demand_mshr_miss_rate::total     0.052658                       # mshr miss rate for demand accesses
system.cpu0.icache.overall_mshr_miss_rate::cpu0.inst     0.052658                       # mshr miss rate for overall accesses
system.cpu0.icache.overall_mshr_miss_rate::total     0.052658                       # mshr miss rate for overall accesses
system.cpu0.icache.ReadReq_avg_mshr_miss_latency::cpu0.inst 52316.906103                       # average ReadReq mshr miss latency
system.cpu0.icache.ReadReq_avg_mshr_miss_latency::total 52316.906103                       # average ReadReq mshr miss latency
system.cpu0.icache.demand_avg_mshr_miss_latency::cpu0.inst 52316.906103                       # average overall mshr miss latency
system.cpu0.icache.demand_avg_mshr_miss_latency::total 52316.906103                       # average overall mshr miss latency
system.cpu0.icache.overall_avg_mshr_miss_latency::cpu0.inst 52316.906103                       # average overall mshr miss latency
system.cpu0.icache.overall_avg_mshr_miss_latency::total 52316.906103                       # average overall mshr miss latency
system.cpu0.icache.no_allocate_misses               0                       # Number of misses that were no-allocate
system.cpu1.branchPred.lookups                      0                       # Number of BP lookups
system.cpu1.branchPred.condPredicted                0                       # Number of conditional branches predicted
system.cpu1.branchPred.condIncorrect                0                       # Number of conditional branches incorrect
system.cpu1.branchPred.BTBLookups                   0                       # Number of BTB lookups
system.cpu1.branchPred.BTBHits                      0                       # Number of BTB hits
system.cpu1.branchPred.BTBCorrect                   0                       # Number of correct BTB predictions (this stat may not work properly.
system.cpu1.branchPred.BTBHitPct                  nan                       # BTB Hit Percentage
system.cpu1.branchPred.usedRAS                      0                       # Number of times the RAS was used to get a target.
system.cpu1.branchPred.RASInCorrect                 0                       # Number of incorrect RAS predictions.
system.cpu1.dstage2_mmu.stage2_tlb.walker.walks            0                       # Table walker walks requested
system.cpu1.dstage2_mmu.stage2_tlb.walker.walkRequestOrigin_Requested::Data            0                       # Table walker requests started/completed, data/inst
system.cpu1.dstage2_mmu.stage2_tlb.walker.walkRequestOrigin_Requested::Inst            0                       # Table walker requests started/completed, data/inst
system.cpu1.dstage2_mmu.stage2_tlb.walker.walkRequestOrigin_Requested::total            0                       # Table walker requests started/completed, data/inst
system.cpu1.dstage2_mmu.stage2_tlb.walker.walkRequestOrigin_Completed::Data            0                       # Table walker requests started/completed, data/inst
system.cpu1.dstage2_mmu.stage2_tlb.walker.walkRequestOrigin_Completed::Inst            0                       # Table walker requests started/completed, data/inst
system.cpu1.dstage2_mmu.stage2_tlb.walker.walkRequestOrigin_Completed::total            0                       # Table walker requests started/completed, data/inst
system.cpu1.dstage2_mmu.stage2_tlb.walker.walkRequestOrigin::total            0                       # Table walker requests started/completed, data/inst
system.cpu1.dstage2_mmu.stage2_tlb.inst_hits            0                       # ITB inst hits
system.cpu1.dstage2_mmu.stage2_tlb.inst_misses            0                       # ITB inst misses
system.cpu1.dstage2_mmu.stage2_tlb.read_hits            0                       # DTB read hits
system.cpu1.dstage2_mmu.stage2_tlb.read_misses            0                       # DTB read misses
system.cpu1.dstage2_mmu.stage2_tlb.write_hits            0                       # DTB write hits
[...]
system.l2.overall_hits::total                      51                       # number of overall hits
system.l2.ReadReq_misses::cpu0.inst               197                       # number of ReadReq misses
system.l2.ReadReq_misses::cpu0.data                70                       # number of ReadReq misses
system.l2.ReadReq_misses::total                   267                       # number of ReadReq misses
system.l2.ReadExReq_misses::cpu0.data             552                       # number of ReadExReq misses
system.l2.ReadExReq_misses::total                 552                       # number of ReadExReq misses
system.l2.demand_misses::cpu0.inst                197                       # number of demand (read+write) misses
system.l2.demand_misses::cpu0.data                622                       # number of demand (read+write) misses
system.l2.demand_misses::total                    819                       # number of demand (read+write) misses
system.l2.overall_misses::cpu0.inst               197                       # number of overall misses
system.l2.overall_misses::cpu0.data               622                       # number of overall misses
system.l2.overall_misses::total                   819                       # number of overall misses
system.l2.ReadReq_miss_latency::cpu0.inst     10545500                       # number of ReadReq miss cycles
system.l2.ReadReq_miss_latency::cpu0.data      3798000                       # number of ReadReq miss cycles
system.l2.ReadReq_miss_latency::total        14343500                       # number of ReadReq miss cycles
system.l2.ReadExReq_miss_latency::cpu0.data     29303500                       # number of ReadExReq miss cycles
system.l2.ReadExReq_miss_latency::total      29303500                       # number of ReadExReq miss cycles
system.l2.demand_miss_latency::cpu0.inst     10545500                       # number of demand (read+write) miss cycles
system.l2.demand_miss_latency::cpu0.data     33101500                       # number of demand (read+write) miss cycles
system.l2.demand_miss_latency::total         43647000                       # number of demand (read+write) miss cycles
system.l2.overall_miss_latency::cpu0.inst     10545500                       # number of overall miss cycles
system.l2.overall_miss_latency::cpu0.data     33101500                       # number of overall miss cycles
system.l2.overall_miss_latency::total        43647000                       # number of overall miss cycles
system.l2.ReadReq_accesses::cpu0.inst             213                       # number of ReadReq accesses(hits+misses)
system.l2.ReadReq_accesses::cpu0.data             100                       # number of ReadReq accesses(hits+misses)
system.l2.ReadReq_accesses::total                 313                       # number of ReadReq accesses(hits+misses)
system.l2.Writeback_accesses::writebacks           76                       # number of Writeback accesses(hits+misses)
system.l2.Writeback_accesses::total                76                       # number of Writeback accesses(hits+misses)
system.l2.ReadExReq_accesses::cpu0.data           557                       # number of ReadExReq accesses(hits+misses)
system.l2.ReadExReq_accesses::total               557                       # number of ReadExReq accesses(hits+misses)
system.l2.demand_accesses::cpu0.inst              213                       # number of demand (read+write) accesses
system.l2.demand_accesses::cpu0.data              657                       # number of demand (read+write) accesses
system.l2.demand_accesses::total                  870                       # number of demand (read+write) accesses
system.l2.overall_accesses::cpu0.inst             213                       # number of overall (read+write) accesses
system.l2.overall_accesses::cpu0.data             657                       # number of overall (read+write) accesses
system.l2.overall_accesses::total                 870                       # number of overall (read+write) accesses
system.l2.ReadReq_miss_rate::cpu0.inst       0.924883                       # miss rate for ReadReq accesses
system.l2.ReadReq_miss_rate::cpu0.data       0.700000                       # miss rate for ReadReq accesses
system.l2.ReadReq_miss_rate::total           0.853035                       # miss rate for ReadReq accesses
system.l2.ReadExReq_miss_rate::cpu0.data     0.991023                       # miss rate for ReadExReq accesses
system.l2.ReadExReq_miss_rate::total         0.991023                       # miss rate for ReadExReq accesses
system.l2.demand_miss_rate::cpu0.inst        0.924883                       # miss rate for demand accesses
system.l2.demand_miss_rate::cpu0.data        0.946728                       # miss rate for demand accesses
system.l2.demand_miss_rate::total            0.941379                       # miss rate for demand accesses
system.l2.overall_miss_rate::cpu0.inst       0.924883                       # miss rate for overall accesses
system.l2.overall_miss_rate::cpu0.data       0.946728                       # miss rate for overall accesses
system.l2.overall_miss_rate::total           0.941379                       # miss rate for overall accesses
system.l2.ReadReq_avg_miss_latency::cpu0.inst 53530.456853                       # average ReadReq miss latency
system.l2.ReadReq_avg_miss_latency::cpu0.data 54257.142857                       # average ReadReq miss latency
system.l2.ReadReq_avg_miss_latency::total 53720.973783                       # average ReadReq miss latency
system.l2.ReadExReq_avg_miss_latency::cpu0.data 53086.050725                       # average ReadExReq miss latency
system.l2.ReadExReq_avg_miss_latency::total 53086.050725                       # average ReadExReq miss latency
system.l2.demand_avg_miss_latency::cpu0.inst 53530.456853                       # average overall miss latency
system.l2.demand_avg_miss_latency::cpu0.data 53217.845659                       # average overall miss latency
system.l2.demand_avg_miss_latency::total 53293.040293                       # average overall miss latency
system.l2.overall_avg_miss_latency::cpu0.inst 53530.456853                       # average overall miss latency
system.l2.overall_avg_miss_latency::cpu0.data 53217.845659                       # average overall miss latency
system.l2.overall_avg_miss_latency::total 53293.040293                       # average overall miss latency
system.l2.blocked_cycles::no_mshrs                  0                       # number of cycles access was blocked
system.l2.blocked_cycles::no_targets                0                       # number of cycles access was blocked
system.l2.blocked::no_mshrs                         0                       # number of cycles access was blocked
system.l2.blocked::no_targets                       0                       # number of cycles access was blocked
system.l2.avg_blocked_cycles::no_mshrs            nan                       # average number of cycles each access was blocked
system.l2.avg_blocked_cycles::no_targets          nan                       # average number of cycles each access was blocked
system.l2.fast_writes                               0                       # number of fast writes performed
system.l2.cache_copies                              0                       # number of cache copies performed
system.l2.ReadReq_mshr_hits::cpu0.inst              1                       # number of ReadReq MSHR hits
system.l2.ReadReq_mshr_hits::cpu0.data              7                       # number of ReadReq MSHR hits
system.l2.ReadReq_mshr_hits::total                  8                       # number of ReadReq MSHR hits
system.l2.demand_mshr_hits::cpu0.inst               1                       # number of demand (read+write) MSHR hits
system.l2.demand_mshr_hits::cpu0.data               7                       # number of demand (read+write) MSHR hits
system.l2.demand_mshr_hits::total                   8                       # number of demand (read+write) MSHR hits
system.l2.overall_mshr_hits::cpu0.inst              1                       # number of overall MSHR hits
system.l2.overall_mshr_hits::cpu0.data              7                       # number of overall MSHR hits
system.l2.overall_mshr_hits::total                  8                       # number of overall MSHR hits
system.l2.ReadReq_mshr_misses::cpu0.inst          196                       # number of ReadReq MSHR misses
system.l2.ReadReq_mshr_misses::cpu0.data           63                       # number of ReadReq MSHR misses
system.l2.ReadReq_mshr_misses::total              259                       # number of ReadReq MSHR misses
system.l2.ReadExReq_mshr_misses::cpu0.data          552                       # number of ReadExReq MSHR misses
system.l2.ReadExReq_mshr_misses::total            552                       # number of ReadExReq MSHR misses
system.l2.demand_mshr_misses::cpu0.inst           196                       # number of demand (read+write) MSHR misses
system.l2.demand_mshr_misses::cpu0.data           615                       # number of demand (read+write) MSHR misses
system.l2.demand_mshr_misses::total               811                       # number of demand (read+write) MSHR misses
system.l2.overall_mshr_misses::cpu0.inst          196                       # number of overall MSHR misses
system.l2.overall_mshr_misses::cpu0.data          615                       # number of overall MSHR misses
system.l2.overall_mshr_misses::total              811                       # number of overall MSHR misses
system.l2.ReadReq_mshr_miss_latency::cpu0.inst      8062000                       # number of ReadReq MSHR miss cycles
system.l2.ReadReq_mshr_miss_latency::cpu0.data      2674000                       # number of ReadReq MSHR miss cycles
system.l2.ReadReq_mshr_miss_latency::total     10736000                       # number of ReadReq MSHR miss cycles
system.l2.ReadExReq_mshr_miss_latency::cpu0.data     22409000                       # number of ReadExReq MSHR miss cycles
system.l2.ReadExReq_mshr_miss_latency::total     22409000                       # number of ReadExReq MSHR miss cycles
system.l2.demand_mshr_miss_latency::cpu0.inst      8062000                       # number of demand (read+write) MSHR miss cycles
system.l2.demand_mshr_miss_latency::cpu0.data     25083000                       # number of demand (read+write) MSHR miss cycles
system.l2.demand_mshr_miss_latency::total     33145000                       # number of demand (read+write) MSHR miss cycles
system.l2.overall_mshr_miss_latency::cpu0.inst      8062000                       # number of overall MSHR miss cycles
system.l2.overall_mshr_miss_latency::cpu0.data     25083000                       # number of overall MSHR miss cycles
system.l2.overall_mshr_miss_latency::total     33145000                       # number of overall MSHR miss cycles
system.l2.ReadReq_mshr_miss_rate::cpu0.inst     0.920188                       # mshr miss rate for ReadReq accesses
system.l2.ReadReq_mshr_miss_rate::cpu0.data     0.630000                       # mshr miss rate for ReadReq accesses
system.l2.ReadReq_mshr_miss_rate::total      0.827476                       # mshr miss rate for ReadReq accesses
system.l2.ReadExReq_mshr_miss_rate::cpu0.data     0.991023                       # mshr miss rate for ReadExReq accesses
system.l2.ReadExReq_mshr_miss_rate::total     0.991023                       # mshr miss rate for ReadExReq accesses
system.l2.demand_mshr_miss_rate::cpu0.inst     0.920188                       # mshr miss rate for demand accesses
system.l2.demand_mshr_miss_rate::cpu0.data     0.936073                       # mshr miss rate for demand accesses
system.l2.demand_mshr_miss_rate::total       0.932184                       # mshr miss rate for demand accesses
system.l2.overall_mshr_miss_rate::cpu0.inst     0.920188                       # mshr miss rate for overall accesses
system.l2.overall_mshr_miss_rate::cpu0.data     0.936073                       # mshr miss rate for overall accesses
system.l2.overall_mshr_miss_rate::total      0.932184                       # mshr miss rate for overall accesses
system.l2.ReadReq_avg_mshr_miss_latency::cpu0.inst 41132.653061                       # average ReadReq mshr miss latency
system.l2.ReadReq_avg_mshr_miss_latency::cpu0.data 42444.444444                       # average ReadReq mshr miss latency
system.l2.ReadReq_avg_mshr_miss_latency::total 41451.737452                       # average ReadReq mshr miss latency
system.l2.ReadExReq_avg_mshr_miss_latency::cpu0.data 40596.014493                       # average ReadExReq mshr miss latency
system.l2.ReadExReq_avg_mshr_miss_latency::total 40596.014493                       # average ReadExReq mshr miss latency
system.l2.demand_avg_mshr_miss_latency::cpu0.inst 41132.653061                       # average overall mshr miss latency
system.l2.demand_avg_mshr_miss_latency::cpu0.data 40785.365854                       # average overall mshr miss latency
system.l2.demand_avg_mshr_miss_latency::total 40869.297164                       # average overall mshr miss latency
system.l2.overall_avg_mshr_miss_latency::cpu0.inst 41132.653061                       # average overall mshr miss latency
system.l2.overall_avg_mshr_miss_latency::cpu0.data 40785.365854                       # average overall mshr miss latency
system.l2.overall_avg_mshr_miss_latency::total 40869.297164                       # average overall mshr miss latency
system.l2.no_allocate_misses                        0                       # Number of misses that were no-allocate
system.membus.trans_dist::ReadReq                 259                       # Transaction distribution
system.membus.trans_dist::ReadResp                259                       # Transaction distribution
system.membus.trans_dist::ReadExReq               552                       # Transaction distribution
system.membus.trans_dist::ReadExResp              552                       # Transaction distribution
system.membus.pkt_count_system.l2.mem_side::system.physmem.port         1622                       # Packet count per connected master and slave (bytes)
system.membus.pkt_count::total                   1622                       # Packet count per connected master and slave (bytes)
system.membus.pkt_size_system.l2.mem_side::system.physmem.port        51904                       # Cumulative packet size per connected master and slave (bytes)
system.membus.pkt_size::total                   51904                       # Cumulative packet size per connected master and slave (bytes)
system.membus.snoops                                0                       # Total snoops (count)
system.membus.snoop_fanout::samples               879                       # Request fanout histogram
system.membus.snoop_fanout::mean                    0                       # Request fanout histogram
system.membus.snoop_fanout::stdev                   0                       # Request fanout histogram
system.membus.snoop_fanout::underflows              0      0.00%      0.00% # Request fanout histogram
system.membus.snoop_fanout::0                     879    100.00%    100.00% # Request fanout histogram
system.membus.snoop_fanout::1                       0      0.00%    100.00% # Request fanout histogram
system.membus.snoop_fanout::overflows               0      0.00%    100.00% # Request fanout histogram
system.membus.snoop_fanout::min_value               0                       # Request fanout histogram
system.membus.snoop_fanout::max_value               0                       # Request fanout histogram
system.membus.snoop_fanout::total                 879                       # Request fanout histogram
system.membus.reqLayer0.occupancy             1306396                       # Layer occupancy (ticks)
system.membus.reqLayer0.utilization               4.8                       # Layer utilization (%)
system.membus.respLayer1.occupancy            4425000                       # Layer occupancy (ticks)
system.membus.respLayer1.utilization             16.2                       # Layer utilization (%)
system.tol2bus.trans_dist::ReadReq                313                       # Transaction distribution
system.tol2bus.trans_dist::ReadResp               313                       # Transaction distribution
system.tol2bus.trans_dist::Writeback               76                       # Transaction distribution
system.tol2bus.trans_dist::ReadExReq              557                       # Transaction distribution
system.tol2bus.trans_dist::ReadExResp             556                       # Transaction distribution
system.tol2bus.pkt_count_system.cpu0.icache.mem_side::system.l2.cpu_side          426                       # Packet count per connected master and slave (bytes)
system.tol2bus.pkt_count_system.cpu0.dcache.mem_side::system.l2.cpu_side         1389                       # Packet count per connected master and slave (bytes)
system.tol2bus.pkt_count::total                  1815                       # Packet count per connected master and slave (bytes)
system.tol2bus.pkt_size_system.cpu0.icache.mem_side::system.l2.cpu_side        13632                       # Cumulative packet size per connected master and slave (bytes)
system.tol2bus.pkt_size_system.cpu0.dcache.mem_side::system.l2.cpu_side        46848                       # Cumulative packet size per connected master and slave (bytes)
system.tol2bus.pkt_size::total                  60480                       # Cumulative packet size per connected master and slave (bytes)
system.tol2bus.snoops                               0                       # Total snoops (count)
system.tol2bus.snoop_fanout::samples              946                       # Request fanout histogram
system.tol2bus.snoop_fanout::mean                   5                       # Request fanout histogram
system.tol2bus.snoop_fanout::stdev                  0                       # Request fanout histogram
system.tol2bus.snoop_fanout::underflows             0      0.00%      0.00% # Request fanout histogram
system.tol2bus.snoop_fanout::0                      0      0.00%      0.00% # Request fanout histogram
system.tol2bus.snoop_fanout::1                      0      0.00%      0.00% # Request fanout histogram
system.tol2bus.snoop_fanout::2                      0      0.00%      0.00% # Request fanout histogram
system.tol2bus.snoop_fanout::3                      0      0.00%      0.00% # Request fanout histogram
system.tol2bus.snoop_fanout::4                      0      0.00%      0.00% # Request fanout histogram
system.tol2bus.snoop_fanout::5                    946    100.00%    100.00% # Request fanout histogram
system.tol2bus.snoop_fanout::6                      0      0.00%    100.00% # Request fanout histogram
system.tol2bus.snoop_fanout::overflows              0      0.00%    100.00% # Request fanout histogram
system.tol2bus.snoop_fanout::min_value              5                       # Request fanout histogram
system.tol2bus.snoop_fanout::max_value              5                       # Request fanout histogram
system.tol2bus.snoop_fanout::total                946                       # Request fanout histogram
system.tol2bus.reqLayer0.occupancy             549000                       # Layer occupancy (ticks)
system.tol2bus.reqLayer0.utilization              2.0                       # Layer utilization (%)
system.tol2bus.respLayer0.occupancy            319999                       # Layer occupancy (ticks)
system.tol2bus.respLayer0.utilization             1.2                       # Layer utilization (%)
system.tol2bus.respLayer1.occupancy            987493                       # Layer occupancy (ticks)
system.tol2bus.respLayer1.utilization             3.6                       # Layer utilization (%)

---------- End Simulation Statistics   ----------
