
---------- Begin Simulation Statistics ----------
sim_seconds                                  0.017471                       # Number of seconds simulated
sim_ticks                                 17471028000                       # Number of ticks simulated
final_tick                                17471028000                       # Number of ticks from beginning of simulation (restored from checkpoints and never reset)
sim_freq                                 1000000000000                       # Frequency of simulated ticks
host_inst_rate                                 165220                       # Simulator instruction rate (inst/s)
host_op_rate                                   168400                       # Simulator op (including micro ops) rate (op/s)
host_tick_rate                               22221594                       # Simulator tick rate (ticks/s)
host_mem_usage                                 742628                       # Number of bytes of host memory used
host_seconds                                   786.22                       # Real time elapsed on the host
sim_insts                                   129898849                       # Number of instructions simulated
sim_ops                                     132399244                       # Number of ops (including micro ops) simulated
system.voltage_domain.voltage                       1                       # Voltage in Volts
system.clk_domain.clock                          1000                       # Clock period in ticks
system.physmem.bytes_read::cpu0.inst            22464                       # Number of bytes read from this memory
system.physmem.bytes_read::cpu0.data            18496                       # Number of bytes read from this memory
system.physmem.bytes_read::cpu1.inst             6912                       # Number of bytes read from this memory
system.physmem.bytes_read::cpu1.data            35328                       # Number of bytes read from this memory
system.physmem.bytes_read::cpu2.inst             4288                       # Number of bytes read from this memory
system.physmem.bytes_read::cpu2.data            57792                       # Number of bytes read from this memory
system.physmem.bytes_read::cpu3.inst             2624                       # Number of bytes read from this memory
system.physmem.bytes_read::cpu3.data            66048                       # Number of bytes read from this memory
system.physmem.bytes_read::cpu4.inst              640                       # Number of bytes read from this memory
system.physmem.bytes_read::cpu4.data           122176                       # Number of bytes read from this memory
system.physmem.bytes_read::cpu5.inst             2496                       # Number of bytes read from this memory
system.physmem.bytes_read::cpu5.data           147456                       # Number of bytes read from this memory
system.physmem.bytes_read::cpu6.inst             1024                       # Number of bytes read from this memory
system.physmem.bytes_read::cpu6.data           127616                       # Number of bytes read from this memory
system.physmem.bytes_read::cpu7.inst             3840                       # Number of bytes read from this memory
system.physmem.bytes_read::cpu7.data           104704                       # Number of bytes read from this memory
system.physmem.bytes_read::cpu8.inst             4672                       # Number of bytes read from this memory
system.physmem.bytes_read::cpu8.data            45952                       # Number of bytes read from this memory
system.physmem.bytes_read::total               774528                       # Number of bytes read from this memory
system.physmem.bytes_inst_read::cpu0.inst        22464                       # Number of instructions bytes read from this memory
system.physmem.bytes_inst_read::cpu1.inst         6912                       # Number of instructions bytes read from this memory
system.physmem.bytes_inst_read::cpu2.inst         4288                       # Number of instructions bytes read from this memory
system.physmem.bytes_inst_read::cpu3.inst         2624                       # Number of instructions bytes read from this memory
system.physmem.bytes_inst_read::cpu4.inst          640                       # Number of instructions bytes read from this memory
system.physmem.bytes_inst_read::cpu5.inst         2496                       # Number of instructions bytes read from this memory
system.physmem.bytes_inst_read::cpu6.inst         1024                       # Number of instructions bytes read from this memory
system.physmem.bytes_inst_read::cpu7.inst         3840                       # Number of instructions bytes read from this memory
system.physmem.bytes_inst_read::cpu8.inst         4672                       # Number of instructions bytes read from this memory
system.physmem.bytes_inst_read::total           48960                       # Number of instructions bytes read from this memory
system.physmem.bytes_written::writebacks        12352                       # Number of bytes written to this memory
system.physmem.bytes_written::total             12352                       # Number of bytes written to this memory
system.physmem.num_reads::cpu0.inst               351                       # Number of read requests responded to by this memory
system.physmem.num_reads::cpu0.data               289                       # Number of read requests responded to by this memory
system.physmem.num_reads::cpu1.inst               108                       # Number of read requests responded to by this memory
system.physmem.num_reads::cpu1.data               552                       # Number of read requests responded to by this memory
system.physmem.num_reads::cpu2.inst                67                       # Number of read requests responded to by this memory
system.physmem.num_reads::cpu2.data               903                       # Number of read requests responded to by this memory
system.physmem.num_reads::cpu3.inst                41                       # Number of read requests responded to by this memory
system.physmem.num_reads::cpu3.data              1032                       # Number of read requests responded to by this memory
system.physmem.num_reads::cpu4.inst                10                       # Number of read requests responded to by this memory
system.physmem.num_reads::cpu4.data              1909                       # Number of read requests responded to by this memory
system.physmem.num_reads::cpu5.inst                39                       # Number of read requests responded to by this memory
system.physmem.num_reads::cpu5.data              2304                       # Number of read requests responded to by this memory
system.physmem.num_reads::cpu6.inst                16                       # Number of read requests responded to by this memory
system.physmem.num_reads::cpu6.data              1994                       # Number of read requests responded to by this memory
system.physmem.num_reads::cpu7.inst                60                       # Number of read requests responded to by this memory
system.physmem.num_reads::cpu7.data              1636                       # Number of read requests responded to by this memory
system.physmem.num_reads::cpu8.inst                73                       # Number of read requests responded to by this memory
system.physmem.num_reads::cpu8.data               718                       # Number of read requests responded to by this memory
system.physmem.num_reads::total                 12102                       # Number of read requests responded to by this memory
system.physmem.num_writes::writebacks             193                       # Number of write requests responded to by this memory
system.physmem.num_writes::total                  193                       # Number of write requests responded to by this memory
system.physmem.bw_read::cpu0.inst             1285786                       # Total read bandwidth from this memory (bytes/s)
system.physmem.bw_read::cpu0.data             1058667                       # Total read bandwidth from this memory (bytes/s)
system.physmem.bw_read::cpu1.inst              395626                       # Total read bandwidth from this memory (bytes/s)
system.physmem.bw_read::cpu1.data             2022091                       # Total read bandwidth from this memory (bytes/s)
system.physmem.bw_read::cpu2.inst              245435                       # Total read bandwidth from this memory (bytes/s)
system.physmem.bw_read::cpu2.data             3307876                       # Total read bandwidth from this memory (bytes/s)
system.physmem.bw_read::cpu3.inst              150192                       # Total read bandwidth from this memory (bytes/s)
system.physmem.bw_read::cpu3.data             3780430                       # Total read bandwidth from this memory (bytes/s)
system.physmem.bw_read::cpu4.inst               36632                       # Total read bandwidth from this memory (bytes/s)
system.physmem.bw_read::cpu4.data             6993063                       # Total read bandwidth from this memory (bytes/s)
system.physmem.bw_read::cpu5.inst              142865                       # Total read bandwidth from this memory (bytes/s)
system.physmem.bw_read::cpu5.data             8440030                       # Total read bandwidth from this memory (bytes/s)
system.physmem.bw_read::cpu6.inst               58611                       # Total read bandwidth from this memory (bytes/s)
system.physmem.bw_read::cpu6.data             7304436                       # Total read bandwidth from this memory (bytes/s)
system.physmem.bw_read::cpu7.inst              219792                       # Total read bandwidth from this memory (bytes/s)
system.physmem.bw_read::cpu7.data             5993007                       # Total read bandwidth from this memory (bytes/s)
system.physmem.bw_read::cpu8.inst              267414                       # Total read bandwidth from this memory (bytes/s)
system.physmem.bw_read::cpu8.data             2630183                       # Total read bandwidth from this memory (bytes/s)
system.physmem.bw_read::total                44332137                       # Total read bandwidth from this memory (bytes/s)
system.physmem.bw_inst_read::cpu0.inst        1285786                       # Instruction read bandwidth from this memory (bytes/s)
system.physmem.bw_inst_read::cpu1.inst         395626                       # Instruction read bandwidth from this memory (bytes/s)
system.physmem.bw_inst_read::cpu2.inst         245435                       # Instruction read bandwidth from this memory (bytes/s)
system.physmem.bw_inst_read::cpu3.inst         150192                       # Instruction read bandwidth from this memory (bytes/s)
system.physmem.bw_inst_read::cpu4.inst          36632                       # Instruction read bandwidth from this memory (bytes/s)
system.physmem.bw_inst_read::cpu5.inst         142865                       # Instruction read bandwidth from this memory (bytes/s)
system.physmem.bw_inst_read::cpu6.inst          58611                       # Instruction read bandwidth from this memory (bytes/s)
system.physmem.bw_inst_read::cpu7.inst         219792                       # Instruction read bandwidth from this memory (bytes/s)
system.physmem.bw_inst_read::cpu8.inst         267414                       # Instruction read bandwidth from this memory (bytes/s)
system.physmem.bw_inst_read::total            2802354                       # Instruction read bandwidth from this memory (bytes/s)
system.physmem.bw_write::writebacks            706999                       # Write bandwidth from this memory (bytes/s)
system.physmem.bw_write::total                 706999                       # Write bandwidth from this memory (bytes/s)
system.physmem.bw_total::writebacks            706999                       # Total bandwidth to/from this memory (bytes/s)
system.physmem.bw_total::cpu0.inst            1285786                       # Total bandwidth to/from this memory (bytes/s)
system.physmem.bw_total::cpu0.data            1058667                       # Total bandwidth to/from this memory (bytes/s)
system.physmem.bw_total::cpu1.inst             395626                       # Total bandwidth to/from this memory (bytes/s)
system.physmem.bw_total::cpu1.data            2022091                       # Total bandwidth to/from this memory (bytes/s)
system.physmem.bw_total::cpu2.inst             245435                       # Total bandwidth to/from this memory (bytes/s)
system.physmem.bw_total::cpu2.data            3307876                       # Total bandwidth to/from this memory (bytes/s)
system.physmem.bw_total::cpu3.inst             150192                       # Total bandwidth to/from this memory (bytes/s)
system.physmem.bw_total::cpu3.data            3780430                       # Total bandwidth to/from this memory (bytes/s)
system.physmem.bw_total::cpu4.inst              36632                       # Total bandwidth to/from this memory (bytes/s)
system.physmem.bw_total::cpu4.data            6993063                       # Total bandwidth to/from this memory (bytes/s)
system.physmem.bw_total::cpu5.inst             142865                       # Total bandwidth to/from this memory (bytes/s)
system.physmem.bw_total::cpu5.data            8440030                       # Total bandwidth to/from this memory (bytes/s)
system.physmem.bw_total::cpu6.inst              58611                       # Total bandwidth to/from this memory (bytes/s)
system.physmem.bw_total::cpu6.data            7304436                       # Total bandwidth to/from this memory (bytes/s)
system.physmem.bw_total::cpu7.inst             219792                       # Total bandwidth to/from this memory (bytes/s)
system.physmem.bw_total::cpu7.data            5993007                       # Total bandwidth to/from this memory (bytes/s)
system.physmem.bw_total::cpu8.inst             267414                       # Total bandwidth to/from this memory (bytes/s)
system.physmem.bw_total::cpu8.data            2630183                       # Total bandwidth to/from this memory (bytes/s)
system.physmem.bw_total::total               45039136                       # Total bandwidth to/from this memory (bytes/s)
system.cpu0.branchPred.lookups                8723868                       # Number of BP lookups
system.cpu0.branchPred.condPredicted          8722563                       # Number of conditional branches predicted
system.cpu0.branchPred.condIncorrect              787                       # Number of conditional branches incorrect
system.cpu0.branchPred.BTBLookups             8721395                       # Number of BTB lookups
system.cpu0.branchPred.BTBHits                8720930                       # Number of BTB hits
system.cpu0.branchPred.BTBCorrect                   0                       # Number of correct BTB predictions (this stat may not work properly.
system.cpu0.branchPred.BTBHitPct            99.994668                       # BTB Hit Percentage
system.cpu0.branchPred.usedRAS                    472                       # Number of times the RAS was used to get a target.
system.cpu0.branchPred.RASInCorrect                55                       # Number of incorrect RAS predictions.
system.cpu0.dstage2_mmu.stage2_tlb.walker.walks            0                       # Table walker walks requested
system.cpu0.dstage2_mmu.stage2_tlb.walker.walkRequestOrigin_Requested::Data            0                       # Table walker requests started/completed, data/inst
system.cpu0.dstage2_mmu.stage2_tlb.walker.walkRequestOrigin_Requested::Inst            0                       # Table walker requests started/completed, data/inst
system.cpu0.dstage2_mmu.stage2_tlb.walker.walkRequestOrigin_Requested::total            0                       # Table walker requests started/completed, data/inst
system.cpu0.dstage2_mmu.stage2_tlb.walker.walkRequestOrigin_Completed::Data            0                       # Table walker requests started/completed, data/inst
system.cpu0.dstage2_mmu.stage2_tlb.walker.walkRequestOrigin_Completed::Inst            0                       # Table walker requests started/completed, data/inst
system.cpu0.dstage2_mmu.stage2_tlb.walker.walkRequestOrigin_Completed::total            0                       # Table walker requests started/completed, data/inst
system.cpu0.dstage2_mmu.stage2_tlb.walker.walkRequestOrigin::total            0                       # Table walker requests started/completed, data/inst
system.cpu0.dstage2_mmu.stage2_tlb.inst_hits            0                       # ITB inst hits
system.cpu0.dstage2_mmu.stage2_tlb.inst_misses            0                       # ITB inst misses
system.cpu0.dstage2_mmu.stage2_tlb.read_hits            0                       # DTB read hits
system.cpu0.dstage2_mmu.stage2_tlb.read_misses            0                       # DTB read misses
system.cpu0.dstage2_mmu.stage2_tlb.write_hits            0                       # DTB write hits
system.cpu0.dstage2_mmu.stage2_tlb.write_misses            0                       # DTB write misses
system.cpu0.dstage2_mmu.stage2_tlb.flush_tlb            0                       # Number of times complete TLB was flushed
system.cpu0.dstage2_mmu.stage2_tlb.flush_tlb_mva            0                       # Number of times TLB was flushed by MVA
system.cpu0.dstage2_mmu.stage2_tlb.flush_tlb_mva_asid            0                       # Number of times TLB was flushed by MVA & ASID
system.cpu0.dstage2_mmu.stage2_tlb.flush_tlb_asid            0                       # Number of times TLB was flushed by ASID
system.cpu0.dstage2_mmu.stage2_tlb.flush_entries            0                       # Number of entries that have been flushed from TLB
system.cpu0.dstage2_mmu.stage2_tlb.align_faults            0                       # Number of TLB faults due to alignment restrictions
system.cpu0.dstage2_mmu.stage2_tlb.prefetch_faults            0                       # Number of TLB faults due to prefetch
system.cpu0.dstage2_mmu.stage2_tlb.domain_faults            0                       # Number of TLB faults due to domain restrictions
system.cpu0.dstage2_mmu.stage2_tlb.perms_faults            0                       # Number of TLB faults due to permissions restrictions
system.cpu0.dstage2_mmu.stage2_tlb.read_accesses            0                       # DTB read accesses
system.cpu0.dstage2_mmu.stage2_tlb.write_accesses            0                       # DTB write accesses
system.cpu0.dstage2_mmu.stage2_tlb.inst_accesses            0                       # ITB inst accesses
system.cpu0.dstage2_mmu.stage2_tlb.hits             0                       # DTB hits
system.cpu0.dstage2_mmu.stage2_tlb.misses            0                       # DTB misses
system.cpu0.dstage2_mmu.stage2_tlb.accesses            0                       # DTB accesses
system.cpu0.dtb.walker.walks                        0                       # Table walker walks requested
system.cpu0.dtb.walker.walkRequestOrigin_Requested::Data            0                       # Table walker requests started/completed, data/inst
system.cpu0.dtb.walker.walkRequestOrigin_Requested::Inst            0                       # Table walker requests started/completed, data/inst
system.cpu0.dtb.walker.walkRequestOrigin_Requested::total            0                       # Table walker requests started/completed, data/inst
system.cpu0.dtb.walker.walkRequestOrigin_Completed::Data            0                       # Table walker requests started/completed, data/inst
system.cpu0.dtb.walker.walkRequestOrigin_Completed::Inst            0                       # Table walker requests started/completed, data/inst
system.cpu0.dtb.walker.walkRequestOrigin_Completed::total            0                       # Table walker requests started/completed, data/inst
system.cpu0.dtb.walker.walkRequestOrigin::total            0                       # Table walker requests started/completed, data/inst
system.cpu0.dtb.inst_hits                           0                       # ITB inst hits
system.cpu0.dtb.inst_misses                         0                       # ITB inst misses
system.cpu0.dtb.read_hits                           0                       # DTB read hits
system.cpu0.dtb.read_misses                         0                       # DTB read misses
system.cpu0.dtb.write_hits                          0                       # DTB write hits
system.cpu0.dtb.write_misses                        0                       # DTB write misses
system.cpu0.dtb.flush_tlb                           0                       # Number of times complete TLB was flushed
system.cpu0.dtb.flush_tlb_mva                       0                       # Number of times TLB was flushed by MVA
system.cpu0.dtb.flush_tlb_mva_asid                  0                       # Number of times TLB was flushed by MVA & ASID
system.cpu0.dtb.flush_tlb_asid                      0                       # Number of times TLB was flushed by ASID
system.cpu0.dtb.flush_entries                       0                       # Number of entries that have been flushed from TLB
system.cpu0.dtb.align_faults                        0                       # Number of TLB faults due to alignment restrictions
system.cpu0.dtb.prefetch_faults                     0                       # Number of TLB faults due to prefetch
system.cpu0.dtb.domain_faults                       0                       # Number of TLB faults due to domain restrictions
system.cpu0.dtb.perms_faults                        0                       # Number of TLB faults due to permissions restrictions
system.cpu0.dtb.read_accesses                       0                       # DTB read accesses
system.cpu0.dtb.write_accesses                      0                       # DTB write accesses
system.cpu0.dtb.inst_accesses                       0                       # ITB inst accesses
system.cpu0.dtb.hits                                0                       # DTB hits
system.cpu0.dtb.misses                              0                       # DTB misses
system.cpu0.dtb.accesses                            0                       # DTB accesses
system.cpu0.istage2_mmu.stage2_tlb.walker.walks            0                       # Table walker walks requested
system.cpu0.istage2_mmu.stage2_tlb.walker.walkRequestOrigin_Requested::Data            0                       # Table walker requests started/completed, data/inst
system.cpu0.istage2_mmu.stage2_tlb.walker.walkRequestOrigin_Requested::Inst            0                       # Table walker requests started/completed, data/inst
system.cpu0.istage2_mmu.stage2_tlb.walker.walkRequestOrigin_Requested::total            0                       # Table walker requests started/completed, data/inst
system.cpu0.istage2_mmu.stage2_tlb.walker.walkRequestOrigin_Completed::Data            0                       # Table walker requests started/completed, data/inst
system.cpu0.istage2_mmu.stage2_tlb.walker.walkRequestOrigin_Completed::Inst            0                       # Table walker requests started/completed, data/inst
system.cpu0.istage2_mmu.stage2_tlb.walker.walkRequestOrigin_Completed::total            0                       # Table walker requests started/completed, data/inst
system.cpu0.istage2_mmu.stage2_tlb.walker.walkRequestOrigin::total            0                       # Table walker requests started/completed, data/inst
system.cpu0.istage2_mmu.stage2_tlb.inst_hits            0                       # ITB inst hits
system.cpu0.istage2_mmu.stage2_tlb.inst_misses            0                       # ITB inst misses
system.cpu0.istage2_mmu.stage2_tlb.read_hits            0                       # DTB read hits
system.cpu0.istage2_mmu.stage2_tlb.read_misses            0                       # DTB read misses
system.cpu0.istage2_mmu.stage2_tlb.write_hits            0                       # DTB write hits
system.cpu0.istage2_mmu.stage2_tlb.write_misses            0                       # DTB write misses
system.cpu0.istage2_mmu.stage2_tlb.flush_tlb            0                       # Number of times complete TLB was flushed
system.cpu0.istage2_mmu.stage2_tlb.flush_tlb_mva            0                       # Number of times TLB was flushed by MVA
system.cpu0.istage2_mmu.stage2_tlb.flush_tlb_mva_asid            0                       # Number of times TLB was flushed by MVA & ASID
system.cpu0.istage2_mmu.stage2_tlb.flush_tlb_asid            0                       # Number of times TLB was flushed by ASID
system.cpu0.istage2_mmu.stage2_tlb.flush_entries            0                       # Number of entries that have been flushed from TLB
system.cpu0.istage2_mmu.stage2_tlb.align_faults            0                       # Number of TLB faults due to alignment restrictions
system.cpu0.istage2_mmu.stage2_tlb.prefetch_faults            0                       # Number of TLB faults due to prefetch
system.cpu0.istage2_mmu.stage2_tlb.domain_faults            0                       # Number of TLB faults due to domain restrictions
system.cpu0.istage2_mmu.stage2_tlb.perms_faults            0                       # Number of TLB faults due to permissions restrictions
system.cpu0.istage2_mmu.stage2_tlb.read_accesses            0                       # DTB read accesses
system.cpu0.istage2_mmu.stage2_tlb.write_accesses            0                       # DTB write accesses
system.cpu0.istage2_mmu.stage2_tlb.inst_accesses            0                       # ITB inst accesses
system.cpu0.istage2_mmu.stage2_tlb.hits             0                       # DTB hits
system.cpu0.istage2_mmu.stage2_tlb.misses            0                       # DTB misses
system.cpu0.istage2_mmu.stage2_tlb.accesses            0                       # DTB accesses
system.cpu0.itb.walker.walks                        0                       # Table walker walks requested
system.cpu0.itb.walker.walkRequestOrigin_Requested::Data            0                       # Table walker requests started/completed, data/inst
system.cpu0.itb.walker.walkRequestOrigin_Requested::Inst            0                       # Table walker requests started/completed, data/inst
system.cpu0.itb.walker.walkRequestOrigin_Requested::total            0                       # Table walker requests started/completed, data/inst
system.cpu0.itb.walker.walkRequestOrigin_Completed::Data            0                       # Table walker requests started/completed, data/inst
system.cpu0.itb.walker.walkRequestOrigin_Completed::Inst            0                       # Table walker requests started/completed, data/inst
system.cpu0.itb.walker.walkRequestOrigin_Completed::total            0                       # Table walker requests started/completed, data/inst
system.cpu0.itb.walker.walkRequestOrigin::total            0                       # Table walker requests started/completed, data/inst
system.cpu0.itb.inst_hits                           0                       # ITB inst hits
system.cpu0.itb.inst_misses                         0                       # ITB inst misses
system.cpu0.itb.read_hits                           0                       # DTB read hits
system.cpu0.itb.read_misses                         0                       # DTB read misses
system.cpu0.itb.write_hits                          0                       # DTB write hits
system.cpu0.itb.write_misses                        0                       # DTB write misses
system.cpu0.itb.flush_tlb                           0                       # Number of times complete TLB was flushed
system.cpu0.itb.flush_tlb_mva                       0                       # Number of times TLB was flushed by MVA
system.cpu0.itb.flush_tlb_mva_asid                  0                       # Number of times TLB was flushed by MVA & ASID
system.cpu0.itb.flush_tlb_asid                      0                       # Number of times TLB was flushed by ASID
system.cpu0.itb.flush_entries                       0                       # Number of entries that have been flushed from TLB
system.cpu0.itb.align_faults                        0                       # Number of TLB faults due to alignment restrictions
system.cpu0.itb.prefetch_faults                     0                       # Number of TLB faults due to prefetch
system.cpu0.itb.domain_faults                       0                       # Number of TLB faults due to domain restrictions
system.cpu0.itb.perms_faults                        0                       # Number of TLB faults due to permissions restrictions
system.cpu0.itb.read_accesses                       0                       # DTB read accesses
system.cpu0.itb.write_accesses                      0                       # DTB write accesses
system.cpu0.itb.inst_accesses                       0                       # ITB inst accesses
system.cpu0.itb.hits                                0                       # DTB hits
system.cpu0.itb.misses                              0                       # DTB misses
system.cpu0.itb.accesses                            0                       # DTB accesses
system.cpu0.workload.num_syscalls               37834                       # Number of system calls
system.cpu0.numCycles                        17471029                       # number of cpu cycles simulated
system.cpu0.numWorkItemsStarted                     0                       # number of work items this cpu started
system.cpu0.numWorkItemsCompleted                   0                       # number of work items this cpu completed
system.cpu0.fetch.icacheStallCycles              8956                       # Number of cycles fetch is stalled on an Icache miss
system.cpu0.fetch.Insts                      43620637                       # Number of instructions fetch has processed
system.cpu0.fetch.Branches                    8723868                       # Number of branches that fetch encountered
system.cpu0.fetch.predictedBranches           8721402                       # Number of branches that fetch has predicted taken
system.cpu0.fetch.Cycles                     17452978                       # Number of cycles fetch has run and was not squashing or blocked
system.cpu0.fetch.SquashCycles                   1713                       # Number of cycles fetch has spent squashing
system.cpu0.fetch.PendingTrapStallCycles          155                       # Number of stall cycles due to pending traps
system.cpu0.fetch.CacheLines                     2563                       # Number of cache lines fetched
system.cpu0.fetch.IcacheSquashes                  277                       # Number of outstanding Icache misses that were squashed
system.cpu0.fetch.rateDist::samples          17462945                       # Number of instructions fetched each cycle (Total)
system.cpu0.fetch.rateDist::mean             2.498210                       # Number of instructions fetched each cycle (Total)
system.cpu0.fetch.rateDist::stdev            0.504658                       # Number of instructions fetched each cycle (Total)
system.cpu0.fetch.rateDist::underflows              0      0.00%      0.00% # Number of instructions fetched each cycle (Total)
system.cpu0.fetch.rateDist::0                   13354      0.08%      0.08% # Number of instructions fetched each cycle (Total)
system.cpu0.fetch.rateDist::1                     828      0.00%      0.08% # Number of instructions fetched each cycle (Total)
system.cpu0.fetch.rateDist::2                 8721009     49.94%     50.02% # Number of instructions fetched each cycle (Total)
system.cpu0.fetch.rateDist::3                 8727754     49.98%    100.00% # Number of instructions fetched each cycle (Total)
system.cpu0.fetch.rateDist::overflows               0      0.00%    100.00% # Number of instructions fetched each cycle (Total)
system.cpu0.fetch.rateDist::min_value               0                       # Number of instructions fetched each cycle (Total)
system.cpu0.fetch.rateDist::max_value               3                       # Number of instructions fetched each cycle (Total)
system.cpu0.fetch.rateDist::total            17462945                       # Number of instructions fetched each cycle (Total)
system.cpu0.fetch.branchRate                 0.499333                       # Number of branch fetches per cycle
system.cpu0.fetch.rate                       2.496741                       # Number of inst fetches per cycle
system.cpu0.decode.IdleCycles                    8404                       # Number of cycles decode is idle
system.cpu0.decode.BlockedCycles                 5595                       # Number of cycles decode is blocked
system.cpu0.decode.RunCycles                 17447668                       # Number of cycles decode is running
system.cpu0.decode.UnblockCycles                  621                       # Number of cycles decode is unblocking
system.cpu0.decode.SquashCycles                   657                       # Number of cycles decode is squashing
system.cpu0.decode.BranchResolved                 496                       # Number of times decode resolved a branch
system.cpu0.decode.BranchMispred                  214                       # Number of times decode detected a branch misprediction
system.cpu0.decode.DecodedInsts              43622672                       # Number of instructions handled by decode
system.cpu0.decode.SquashedInsts                  480                       # Number of squashed instructions handled by decode
system.cpu0.rename.SquashCycles                   657                       # Number of cycles rename is squashing
system.cpu0.rename.IdleCycles                    9125                       # Number of cycles rename is idle
system.cpu0.rename.BlockCycles                    620                       # Number of cycles rename is blocking
system.cpu0.rename.serializeStallCycles          2537                       # count of cycles rename stalled for serializing inst
system.cpu0.rename.RunCycles                 17447479                       # Number of cycles rename is running
system.cpu0.rename.UnblockCycles                 2527                       # Number of cycles rename is unblocking
system.cpu0.rename.RenamedInsts              43621557                       # Number of instructions processed by rename
system.cpu0.rename.IQFullEvents                     1                       # Number of times rename has blocked due to IQ full
system.cpu0.rename.SQFullEvents                  2409                       # Number of times rename has blocked due to SQ full
system.cpu0.rename.RenamedOperands           43623378                       # Number of destination operands rename has renamed
system.cpu0.rename.RenameLookups            200663769                       # Number of register rename lookups that rename has made
system.cpu0.rename.int_rename_lookups        43627515                       # Number of integer rename lookups
system.cpu0.rename.fp_rename_lookups               16                       # Number of floating rename lookups
system.cpu0.rename.CommittedMaps             43614377                       # Number of HB maps that are committed
system.cpu0.rename.UndoneMaps                    9001                       # Number of HB maps that are undone due to squashing
system.cpu0.rename.serializingInsts                60                       # count of serializing insts renamed
system.cpu0.rename.tempSerializingInsts            59                       # count of temporary serializing insts renamed
system.cpu0.rename.skidInsts                     1112                       # count of insts added to the skid buffer
system.cpu0.memDep0.insertedLoads            17443223                       # Number of loads inserted to the mem dependence unit.
system.cpu0.memDep0.insertedStores            8724265                       # Number of stores inserted to the mem dependence unit.
system.cpu0.memDep0.conflictingLoads          8720015                       # Number of conflicting loads.
system.cpu0.memDep0.conflictingStores         8719960                       # Number of conflicting stores.
system.cpu0.iq.iqInstsAdded                  43619443                       # Number of instructions added to the IQ (excludes non-spec)
system.cpu0.iq.iqNonSpecInstsAdded                 82                       # Number of non-speculative instructions added to the IQ
system.cpu0.iq.iqInstsIssued                 43617223                       # Number of instructions issued
system.cpu0.iq.iqSquashedInstsIssued              270                       # Number of squashed instructions issued
system.cpu0.iq.iqSquashedInstsExamined           6088                       # Number of squashed instructions iterated over during squash; mainly for profiling
system.cpu0.iq.iqSquashedOperandsExamined        14609                       # Number of squashed operands that are examined and possibly removed from graph
system.cpu0.iq.iqSquashedNonSpecRemoved             5                       # Number of squashed non-spec instructions that were removed
system.cpu0.iq.issued_per_cycle::samples     17462945                       # Number of insts issued each cycle
system.cpu0.iq.issued_per_cycle::mean        2.497701                       # Number of insts issued each cycle
system.cpu0.iq.issued_per_cycle::stdev       0.705661                       # Number of insts issued each cycle
system.cpu0.iq.issued_per_cycle::underflows            0      0.00%      0.00% # Number of insts issued each cycle
system.cpu0.iq.issued_per_cycle::0              14469      0.08%      0.08% # Number of insts issued each cycle
system.cpu0.iq.issued_per_cycle::1            2121668     12.15%     12.23% # Number of insts issued each cycle
system.cpu0.iq.issued_per_cycle::2            4484869     25.68%     37.91% # Number of insts issued each cycle
system.cpu0.iq.issued_per_cycle::3           10841939     62.09%    100.00% # Number of insts issued each cycle
system.cpu0.iq.issued_per_cycle::overflows            0      0.00%    100.00% # Number of insts issued each cycle
system.cpu0.iq.issued_per_cycle::min_value            0                       # Number of insts issued each cycle
system.cpu0.iq.issued_per_cycle::max_value            3                       # Number of insts issued each cycle
system.cpu0.iq.issued_per_cycle::total       17462945                       # Number of insts issued each cycle
system.cpu0.iq.fu_full::No_OpClass                  0                       # attempts to use FU when none available
system.cpu0.iq.fu_full::IntAlu                      0                       # attempts to use FU when none available
system.cpu0.iq.fu_full::IntMult                     0                       # attempts to use FU when none available
system.cpu0.iq.fu_full::IntDiv                      0                       # attempts to use FU when none available
system.cpu0.iq.fu_full::FloatAdd                    0                       # attempts to use FU when none available
system.cpu0.iq.fu_full::FloatCmp                    0                       # attempts to use FU when none available
system.cpu0.iq.fu_full::FloatCvt                    0                       # attempts to use FU when none available
system.cpu0.iq.fu_full::FloatMult                   0                       # attempts to use FU when none available
system.cpu0.iq.fu_full::FloatDiv                    0                       # attempts to use FU when none available
system.cpu0.iq.fu_full::FloatSqrt                   0                       # attempts to use FU when none available
system.cpu0.iq.fu_full::SimdAdd                     0                       # attempts to use FU when none available
system.cpu0.iq.fu_full::SimdAddAcc                  0                       # attempts to use FU when none available
system.cpu0.iq.fu_full::SimdAlu                     0                       # attempts to use FU when none available
system.cpu0.iq.fu_full::SimdCmp                     0                       # attempts to use FU when none available
system.cpu0.iq.fu_full::SimdCvt                     0                       # attempts to use FU when none available
system.cpu0.iq.fu_full::SimdMisc                    0                       # attempts to use FU when none available
system.cpu0.iq.fu_full::SimdMult                    0                       # attempts to use FU when none available
system.cpu0.iq.fu_full::SimdMultAcc                 0                       # attempts to use FU when none available
system.cpu0.iq.fu_full::SimdShift                   0                       # attempts to use FU when none available
system.cpu0.iq.fu_full::SimdShiftAcc                0                       # attempts to use FU when none available
system.cpu0.iq.fu_full::SimdSqrt                    0                       # attempts to use FU when none available
system.cpu0.iq.fu_full::SimdFloatAdd                0                       # attempts to use FU when none available
system.cpu0.iq.fu_full::SimdFloatAlu                0                       # attempts to use FU when none available
system.cpu0.iq.fu_full::SimdFloatCmp                0                       # attempts to use FU when none available
system.cpu0.iq.fu_full::SimdFloatCvt                0                       # attempts to use FU when none available
system.cpu0.iq.fu_full::SimdFloatDiv                0                       # attempts to use FU when none available
system.cpu0.iq.fu_full::SimdFloatMisc               0                       # attempts to use FU when none available
system.cpu0.iq.fu_full::SimdFloatMult               0                       # attempts to use FU when none available
system.cpu0.iq.fu_full::SimdFloatMultAcc            0                       # attempts to use FU when none available
system.cpu0.iq.fu_full::SimdFloatSqrt               0                       # attempts to use FU when none available
system.cpu0.iq.fu_full::MemRead                     0                       # attempts to use FU when none available
system.cpu0.iq.fu_full::MemWrite                    0                       # attempts to use FU when none available
system.cpu0.iq.fu_full::IprAccess                   0                       # attempts to use FU when none available
system.cpu0.iq.fu_full::InstPrefetch                0                       # attempts to use FU when none available
system.cpu0.iq.FU_type_0::No_OpClass                0      0.00%      0.00% # Type of FU issued
system.cpu0.iq.FU_type_0::IntAlu             17450414     40.01%     40.01% # Type of FU issued
system.cpu0.iq.FU_type_0::IntMult                   6      0.00%     40.01% # Type of FU issued
system.cpu0.iq.FU_type_0::IntDiv                    0      0.00%     40.01% # Type of FU issued
system.cpu0.iq.FU_type_0::FloatAdd                  0      0.00%     40.01% # Type of FU issued
system.cpu0.iq.FU_type_0::FloatCmp                  0      0.00%     40.01% # Type of FU issued
system.cpu0.iq.FU_type_0::FloatCvt                  0      0.00%     40.01% # Type of FU issued
system.cpu0.iq.FU_type_0::FloatMult                 0      0.00%     40.01% # Type of FU issued
system.cpu0.iq.FU_type_0::FloatDiv                  0      0.00%     40.01% # Type of FU issued
system.cpu0.iq.FU_type_0::FloatSqrt                 0      0.00%     40.01% # Type of FU issued
system.cpu0.iq.FU_type_0::SimdAdd                   0      0.00%     40.01% # Type of FU issued
system.cpu0.iq.FU_type_0::SimdAddAcc                0      0.00%     40.01% # Type of FU issued
system.cpu0.iq.FU_type_0::SimdAlu                   0      0.00%     40.01% # Type of FU issued
system.cpu0.iq.FU_type_0::SimdCmp                   0      0.00%     40.01% # Type of FU issued
system.cpu0.iq.FU_type_0::SimdCvt                   0      0.00%     40.01% # Type of FU issued
system.cpu0.iq.FU_type_0::SimdMisc                  0      0.00%     40.01% # Type of FU issued
system.cpu0.iq.FU_type_0::SimdMult                  0      0.00%     40.01% # Type of FU issued
system.cpu0.iq.FU_type_0::SimdMultAcc               0      0.00%     40.01% # Type of FU issued
system.cpu0.iq.FU_type_0::SimdShift                 0      0.00%     40.01% # Type of FU issued
system.cpu0.iq.FU_type_0::SimdShiftAcc              0      0.00%     40.01% # Type of FU issued
system.cpu0.iq.FU_type_0::SimdSqrt                  0      0.00%     40.01% # Type of FU issued
system.cpu0.iq.FU_type_0::SimdFloatAdd              0      0.00%     40.01% # Type of FU issued
system.cpu0.iq.FU_type_0::SimdFloatAlu              0      0.00%     40.01% # Type of FU issued
system.cpu0.iq.FU_type_0::SimdFloatCmp              0      0.00%     40.01% # Type of FU issued
system.cpu0.iq.FU_type_0::SimdFloatCvt              0      0.00%     40.01% # Type of FU issued
system.cpu0.iq.FU_type_0::SimdFloatDiv              0      0.00%     40.01% # Type of FU issued
system.cpu0.iq.FU_type_0::SimdFloatMisc             3      0.00%     40.01% # Type of FU issued
system.cpu0.iq.FU_type_0::SimdFloatMult             0      0.00%     40.01% # Type of FU issued
system.cpu0.iq.FU_type_0::SimdFloatMultAcc            0      0.00%     40.01% # Type of FU issued
system.cpu0.iq.FU_type_0::SimdFloatSqrt             0      0.00%     40.01% # Type of FU issued
system.cpu0.iq.FU_type_0::MemRead            17442844     39.99%     80.00% # Type of FU issued
system.cpu0.iq.FU_type_0::MemWrite            8723956     20.00%    100.00% # Type of FU issued
system.cpu0.iq.FU_type_0::IprAccess                 0      0.00%    100.00% # Type of FU issued
system.cpu0.iq.FU_type_0::InstPrefetch              0      0.00%    100.00% # Type of FU issued
system.cpu0.iq.FU_type_0::total              43617223                       # Type of FU issued
system.cpu0.iq.rate                          2.496546                       # Inst issue rate
system.cpu0.iq.fu_busy_cnt                          0                       # FU busy when requested
system.cpu0.iq.fu_busy_rate                         0                       # FU busy rate (busy events/executed inst)
system.cpu0.iq.int_inst_queue_reads         104697629                       # Number of integer instruction queue reads
system.cpu0.iq.int_inst_queue_writes         43625643                       # Number of integer instruction queue writes
system.cpu0.iq.int_inst_queue_wakeup_accesses     43615981                       # Number of integer instruction queue wakeup accesses
system.cpu0.iq.fp_inst_queue_reads                 32                       # Number of floating instruction queue reads
system.cpu0.iq.fp_inst_queue_writes                16                       # Number of floating instruction queue writes
system.cpu0.iq.fp_inst_queue_wakeup_accesses           16                       # Number of floating instruction queue wakeup accesses
system.cpu0.iq.int_alu_accesses              43617207                       # Number of integer alu accesses
system.cpu0.iq.fp_alu_accesses                     16                       # Number of floating point alu accesses
system.cpu0.iew.lsq.thread0.forwLoads         8720093                       # Number of loads that had data forwarded from stores
system.cpu0.iew.lsq.thread0.invAddrLoads            0                       # Number of loads ignored due to an invalid address
system.cpu0.iew.lsq.thread0.squashedLoads         1565                       # Number of loads squashed
system.cpu0.iew.lsq.thread0.ignoredResponses            1                       # Number of memory responses ignored because the instruction is squashed
system.cpu0.iew.lsq.thread0.memOrderViolation           47                       # Number of memory ordering violations
system.cpu0.iew.lsq.thread0.squashedStores          623                       # Number of stores squashed
system.cpu0.iew.lsq.thread0.invAddrSwpfs            0                       # Number of software prefetches ignored due to an invalid address
system.cpu0.iew.lsq.thread0.blockedLoads            0                       # Number of blocked loads due to partial load-store forwarding
system.cpu0.iew.lsq.thread0.rescheduledLoads            7                       # Number of loads that were rescheduled
system.cpu0.iew.lsq.thread0.cacheBlocked            0                       # Number of times an access to memory failed due to the cache being blocked
system.cpu0.iew.iewIdleCycles                       0                       # Number of cycles IEW is idle
system.cpu0.iew.iewSquashCycles                   657                       # Number of cycles IEW is squashing
system.cpu0.iew.iewBlockCycles                    509                       # Number of cycles IEW is blocking
system.cpu0.iew.iewUnblockCycles                  113                       # Number of cycles IEW is unblocking
system.cpu0.iew.iewDispatchedInsts           43619546                       # Number of instructions dispatched to IQ
system.cpu0.iew.iewDispSquashedInsts              425                       # Number of squashed instructions skipped by dispatch
system.cpu0.iew.iewDispLoadInsts             17443223                       # Number of dispatched load instructions
system.cpu0.iew.iewDispStoreInsts             8724265                       # Number of dispatched store instructions
system.cpu0.iew.iewDispNonSpecInsts                56                       # Number of dispatched non-speculative instructions
system.cpu0.iew.iewIQFullEvents                     3                       # Number of times the IQ has become full, causing a stall
system.cpu0.iew.iewLSQFullEvents                    0                       # Number of times the LSQ has become full, causing a stall
system.cpu0.iew.memOrderViolationEvents            47                       # Number of memory order violations
system.cpu0.iew.predictedTakenIncorrect            82                       # Number of branches that were predicted taken incorrectly
system.cpu0.iew.predictedNotTakenIncorrect          537                       # Number of branches that were predicted not taken incorrectly
system.cpu0.iew.branchMispredicts                 619                       # Number of branch mispredicts detected at execute
system.cpu0.iew.iewExecutedInsts             43616477                       # Number of executed instructions
system.cpu0.iew.iewExecLoadInsts             17442626                       # Number of load instructions executed
system.cpu0.iew.iewExecSquashedInsts              746                       # Number of squashed instructions skipped in execute
system.cpu0.iew.exec_swp                            0                       # number of swp insts executed
system.cpu0.iew.exec_nop                           21                       # number of nop insts executed
system.cpu0.iew.exec_refs                    26166473                       # number of memory reference insts executed
system.cpu0.iew.exec_branches                 8722228                       # Number of branches executed
system.cpu0.iew.exec_stores                   8723847                       # Number of stores executed
system.cpu0.iew.exec_rate                    2.496503                       # Inst execution rate
system.cpu0.iew.wb_sent                      43616120                       # cumulative count of insts sent to commit
system.cpu0.iew.wb_count                     43615997                       # cumulative count of insts written-back
system.cpu0.iew.wb_producers                 26167039                       # num instructions producing a value
system.cpu0.iew.wb_consumers                 26177655                       # num instructions consuming a value
system.cpu0.iew.wb_penalized                        0                       # number of instrctions required to write to 'other' IQ
system.cpu0.iew.wb_rate                      2.496476                       # insts written-back per cycle
system.cpu0.iew.wb_fanout                    0.999594                       # average fanout of values written-back
system.cpu0.iew.wb_penalized_rate                   0                       # fraction of instructions written-back that wrote to 'other' IQ
system.cpu0.commit.commitSquashedInsts           6108                       # The number of squashed insts skipped by commit
system.cpu0.commit.commitNonSpecStalls             77                       # The number of times commit has been forced to stall to communicate backwards
system.cpu0.commit.branchMispredicts              588                       # The number of times a branch was mispredicted
system.cpu0.commit.committed_per_cycle::samples     17461834                       # Number of insts commited each cycle
system.cpu0.commit.committed_per_cycle::mean     2.497644                       # Number of insts commited each cycle
system.cpu0.commit.committed_per_cycle::stdev     1.579920                       # Number of insts commited each cycle
system.cpu0.commit.committed_per_cycle::underflows            0      0.00%      0.00% # Number of insts commited each cycle
system.cpu0.commit.committed_per_cycle::0        15631      0.09%      0.09% # Number of insts commited each cycle
system.cpu0.commit.committed_per_cycle::1      8722608     49.95%     50.04% # Number of insts commited each cycle
system.cpu0.commit.committed_per_cycle::2         1279      0.01%     50.05% # Number of insts commited each cycle
system.cpu0.commit.committed_per_cycle::3      2120316     12.14%     62.19% # Number of insts commited each cycle
system.cpu0.commit.committed_per_cycle::4      4483159     25.67%     87.87% # Number of insts commited each cycle
system.cpu0.commit.committed_per_cycle::5      2118606     12.13%    100.00% # Number of insts commited each cycle
system.cpu0.commit.committed_per_cycle::6           83      0.00%    100.00% # Number of insts commited each cycle
system.cpu0.commit.committed_per_cycle::7           57      0.00%    100.00% # Number of insts commited each cycle
system.cpu0.commit.committed_per_cycle::8           95      0.00%    100.00% # Number of insts commited each cycle
system.cpu0.commit.committed_per_cycle::overflows            0      0.00%    100.00% # Number of insts commited each cycle
system.cpu0.commit.committed_per_cycle::min_value            0                       # Number of insts commited each cycle
system.cpu0.commit.committed_per_cycle::max_value            8                       # Number of insts commited each cycle
system.cpu0.commit.committed_per_cycle::total     17461834                       # Number of insts commited each cycle
system.cpu0.commit.committedInsts            43609942                       # Number of instructions committed
system.cpu0.commit.committedOps              43613437                       # Number of ops (including micro ops) committed
system.cpu0.commit.swp_count                        0                       # Number of s/w prefetches committed
system.cpu0.commit.refs                      26165300                       # Number of memory references committed
system.cpu0.commit.loads                     17441658                       # Number of loads committed
system.cpu0.commit.membars                         26                       # Number of memory barriers committed
system.cpu0.commit.branches                   8721783                       # Number of branches committed
system.cpu0.commit.fp_insts                        16                       # Number of committed floating point instructions.
system.cpu0.commit.int_insts                 34892080                       # Number of committed integer instructions.
system.cpu0.commit.function_calls                 172                       # Number of function calls committed.
system.cpu0.commit.op_class_0::No_OpClass            0      0.00%      0.00% # Class of committed instruction
system.cpu0.commit.op_class_0::IntAlu        17448128     40.01%     40.01% # Class of committed instruction
system.cpu0.commit.op_class_0::IntMult              6      0.00%     40.01% # Class of committed instruction
system.cpu0.commit.op_class_0::IntDiv               0      0.00%     40.01% # Class of committed instruction
system.cpu0.commit.op_class_0::FloatAdd             0      0.00%     40.01% # Class of committed instruction
system.cpu0.commit.op_class_0::FloatCmp             0      0.00%     40.01% # Class of committed instruction
system.cpu0.commit.op_class_0::FloatCvt             0      0.00%     40.01% # Class of committed instruction
system.cpu0.commit.op_class_0::FloatMult            0      0.00%     40.01% # Class of committed instruction
system.cpu0.commit.op_class_0::FloatDiv             0      0.00%     40.01% # Class of committed instruction
system.cpu0.commit.op_class_0::FloatSqrt            0      0.00%     40.01% # Class of committed instruction
system.cpu0.commit.op_class_0::SimdAdd              0      0.00%     40.01% # Class of committed instruction
system.cpu0.commit.op_class_0::SimdAddAcc            0      0.00%     40.01% # Class of committed instruction
system.cpu0.commit.op_class_0::SimdAlu              0      0.00%     40.01% # Class of committed instruction
system.cpu0.commit.op_class_0::SimdCmp              0      0.00%     40.01% # Class of committed instruction
system.cpu0.commit.op_class_0::SimdCvt              0      0.00%     40.01% # Class of committed instruction
system.cpu0.commit.op_class_0::SimdMisc             0      0.00%     40.01% # Class of committed instruction
system.cpu0.commit.op_class_0::SimdMult             0      0.00%     40.01% # Class of committed instruction
system.cpu0.commit.op_class_0::SimdMultAcc            0      0.00%     40.01% # Class of committed instruction
system.cpu0.commit.op_class_0::SimdShift            0      0.00%     40.01% # Class of committed instruction
system.cpu0.commit.op_class_0::SimdShiftAcc            0      0.00%     40.01% # Class of committed instruction
system.cpu0.commit.op_class_0::SimdSqrt             0      0.00%     40.01% # Class of committed instruction
system.cpu0.commit.op_class_0::SimdFloatAdd            0      0.00%     40.01% # Class of committed instruction
system.cpu0.commit.op_class_0::SimdFloatAlu            0      0.00%     40.01% # Class of committed instruction
system.cpu0.commit.op_class_0::SimdFloatCmp            0      0.00%     40.01% # Class of committed instruction
system.cpu0.commit.op_class_0::SimdFloatCvt            0      0.00%     40.01% # Class of committed instruction
system.cpu0.commit.op_class_0::SimdFloatDiv            0      0.00%     40.01% # Class of committed instruction
system.cpu0.commit.op_class_0::SimdFloatMisc            3      0.00%     40.01% # Class of committed instruction
system.cpu0.commit.op_class_0::SimdFloatMult            0      0.00%     40.01% # Class of committed instruction
system.cpu0.commit.op_class_0::SimdFloatMultAcc            0      0.00%     40.01% # Class of committed instruction
system.cpu0.commit.op_class_0::SimdFloatSqrt            0      0.00%     40.01% # Class of committed instruction
system.cpu0.commit.op_class_0::MemRead       17441658     39.99%     80.00% # Class of committed instruction
system.cpu0.commit.op_class_0::MemWrite       8723642     20.00%    100.00% # Class of committed instruction
system.cpu0.commit.op_class_0::IprAccess            0      0.00%    100.00% # Class of committed instruction
system.cpu0.commit.op_class_0::InstPrefetch            0      0.00%    100.00% # Class of committed instruction
system.cpu0.commit.op_class_0::total         43613437                       # Class of committed instruction
system.cpu0.commit.bw_lim_events                   95                       # number cycles where commit BW limit reached
system.cpu0.rob.rob_reads                    61080971                       # The number of ROB reads
system.cpu0.rob.rob_writes                   87240205                       # The number of ROB writes
system.cpu0.timesIdled                            245                       # Number of times that the entire CPU went into an idle state and unscheduled itself
system.cpu0.idleCycles                           8084                       # Total number of cycles that the CPU has spent unscheduled due to idling
system.cpu0.committedInsts                   43609942                       # Number of Instructions Simulated
system.cpu0.committedOps                     43613437                       # Number of Ops (including micro ops) Simulated
system.cpu0.cpi                              0.400620                       # CPI: Cycles Per Instruction
system.cpu0.cpi_total                        0.400620                       # CPI: Total CPI of All Threads
system.cpu0.ipc                              2.496129                       # IPC: Instructions Per Cycle
system.cpu0.ipc_total                        2.496129                       # IPC: Total IPC of All Threads
system.cpu0.int_regfile_reads                43619340                       # number of integer regfile reads
system.cpu0.int_regfile_writes               17449192                       # number of integer regfile writes
system.cpu0.fp_regfile_reads                     1296                       # number of floating regfile reads
system.cpu0.cc_regfile_reads                183175816                       # number of cc regfile reads
system.cpu0.cc_regfile_writes                26167922                       # number of cc regfile writes
system.cpu0.misc_regfile_reads               26489001                       # number of misc regfile reads
system.cpu0.misc_regfile_writes                    54                       # number of misc regfile writes
system.cpu0.dcache.tags.replacements               48                       # number of replacements
system.cpu0.dcache.tags.tagsinuse          143.579345                       # Cycle average of tags in use
system.cpu0.dcache.tags.total_refs           17442927                       # Total number of references to valid blocks.
system.cpu0.dcache.tags.sampled_refs              211                       # Sample count of references to valid blocks.
system.cpu0.dcache.tags.avg_refs         82667.900474                       # Average number of references to valid blocks.
system.cpu0.dcache.tags.warmup_cycle                0                       # Cycle when the warmup percentage was hit.
system.cpu0.dcache.tags.occ_blocks::cpu0.data   143.579345                       # Average occupied blocks per requestor
system.cpu0.dcache.tags.occ_percent::cpu0.data     0.280428                       # Average percentage of cache occupancy
system.cpu0.dcache.tags.occ_percent::total     0.280428                       # Average percentage of cache occupancy
system.cpu0.dcache.tags.occ_task_id_blocks::1024          163                       # Occupied blocks per task id
system.cpu0.dcache.tags.age_task_id_blocks_1024::0           25                       # Occupied blocks per task id
system.cpu0.dcache.tags.age_task_id_blocks_1024::4          138                       # Occupied blocks per task id
system.cpu0.dcache.tags.occ_task_id_percent::1024     0.318359                       # Percentage of cache occupancy per task id
system.cpu0.dcache.tags.tag_accesses         34892185                       # Number of tag accesses
system.cpu0.dcache.tags.data_accesses        34892185                       # Number of data accesses
system.cpu0.dcache.ReadReq_hits::cpu0.data      8722078                       # number of ReadReq hits
system.cpu0.dcache.ReadReq_hits::total        8722078                       # number of ReadReq hits
system.cpu0.dcache.WriteReq_hits::cpu0.data      8721147                       # number of WriteReq hits
system.cpu0.dcache.WriteReq_hits::total       8721147                       # number of WriteReq hits
system.cpu0.dcache.LoadLockedReq_hits::cpu0.data           22                       # number of LoadLockedReq hits
system.cpu0.dcache.LoadLockedReq_hits::total           22                       # number of LoadLockedReq hits
system.cpu0.dcache.StoreCondReq_hits::cpu0.data           24                       # number of StoreCondReq hits
system.cpu0.dcache.StoreCondReq_hits::total           24                       # number of StoreCondReq hits
system.cpu0.dcache.demand_hits::cpu0.data     17443225                       # number of demand (read+write) hits
system.cpu0.dcache.demand_hits::total        17443225                       # number of demand (read+write) hits
system.cpu0.dcache.overall_hits::cpu0.data     17443225                       # number of overall hits
system.cpu0.dcache.overall_hits::total       17443225                       # number of overall hits
system.cpu0.dcache.ReadReq_misses::cpu0.data          227                       # number of ReadReq misses
system.cpu0.dcache.ReadReq_misses::total          227                       # number of ReadReq misses
system.cpu0.dcache.WriteReq_misses::cpu0.data         2419                       # number of WriteReq misses
system.cpu0.dcache.WriteReq_misses::total         2419                       # number of WriteReq misses
system.cpu0.dcache.LoadLockedReq_misses::cpu0.data            3                       # number of LoadLockedReq misses
system.cpu0.dcache.LoadLockedReq_misses::total            3                       # number of LoadLockedReq misses
system.cpu0.dcache.StoreCondReq_misses::cpu0.data            1                       # number of StoreCondReq misses
system.cpu0.dcache.StoreCondReq_misses::total            1                       # number of StoreCondReq misses
system.cpu0.dcache.demand_misses::cpu0.data         2646                       # number of demand (read+write) misses
system.cpu0.dcache.demand_misses::total          2646                       # number of demand (read+write) misses
system.cpu0.dcache.overall_misses::cpu0.data         2646                       # number of overall misses
system.cpu0.dcache.overall_misses::total         2646                       # number of overall misses
system.cpu0.dcache.ReadReq_miss_latency::cpu0.data      9890490                       # number of ReadReq miss cycles
system.cpu0.dcache.ReadReq_miss_latency::total      9890490                       # number of ReadReq miss cycles
system.cpu0.dcache.WriteReq_miss_latency::cpu0.data    118936500                       # number of WriteReq miss cycles
system.cpu0.dcache.WriteReq_miss_latency::total    118936500                       # number of WriteReq miss cycles
system.cpu0.dcache.LoadLockedReq_miss_latency::cpu0.data       133500                       # number of LoadLockedReq miss cycles
system.cpu0.dcache.LoadLockedReq_miss_latency::total       133500                       # number of LoadLockedReq miss cycles
system.cpu0.dcache.StoreCondReq_miss_latency::cpu0.data         7500                       # number of StoreCondReq miss cycles
system.cpu0.dcache.StoreCondReq_miss_latency::total         7500                       # number of StoreCondReq miss cycles
system.cpu0.dcache.demand_miss_latency::cpu0.data    128826990                       # number of demand (read+write) miss cycles
system.cpu0.dcache.demand_miss_latency::total    128826990                       # number of demand (read+write) miss cycles
system.cpu0.dcache.overall_miss_latency::cpu0.data    128826990                       # number of overall miss cycles
system.cpu0.dcache.overall_miss_latency::total    128826990                       # number of overall miss cycles
system.cpu0.dcache.ReadReq_accesses::cpu0.data      8722305                       # number of ReadReq accesses(hits+misses)
system.cpu0.dcache.ReadReq_accesses::total      8722305                       # number of ReadReq accesses(hits+misses)
system.cpu0.dcache.WriteReq_accesses::cpu0.data      8723566                       # number of WriteReq accesses(hits+misses)
system.cpu0.dcache.WriteReq_accesses::total      8723566                       # number of WriteReq accesses(hits+misses)
system.cpu0.dcache.LoadLockedReq_accesses::cpu0.data           25                       # number of LoadLockedReq accesses(hits+misses)
system.cpu0.dcache.LoadLockedReq_accesses::total           25                       # number of LoadLockedReq accesses(hits+misses)
system.cpu0.dcache.StoreCondReq_accesses::cpu0.data           25                       # number of StoreCondReq accesses(hits+misses)
system.cpu0.dcache.StoreCondReq_accesses::total           25                       # number of StoreCondReq accesses(hits+misses)
system.cpu0.dcache.demand_accesses::cpu0.data     17445871                       # number of demand (read+write) accesses
system.cpu0.dcache.demand_accesses::total     17445871                       # number of demand (read+write) accesses
system.cpu0.dcache.overall_accesses::cpu0.data     17445871                       # number of overall (read+write) accesses
system.cpu0.dcache.overall_accesses::total     17445871                       # number of overall (read+write) accesses
system.cpu0.dcache.ReadReq_miss_rate::cpu0.data     0.000026                       # miss rate for ReadReq accesses
system.cpu0.dcache.ReadReq_miss_rate::total     0.000026                       # miss rate for ReadReq accesses
system.cpu0.dcache.WriteReq_miss_rate::cpu0.data     0.000277                       # miss rate for WriteReq accesses
system.cpu0.dcache.WriteReq_miss_rate::total     0.000277                       # miss rate for WriteReq accesses
system.cpu0.dcache.LoadLockedReq_miss_rate::cpu0.data     0.120000                       # miss rate for LoadLockedReq accesses
system.cpu0.dcache.LoadLockedReq_miss_rate::total     0.120000                       # miss rate for LoadLockedReq accesses
system.cpu0.dcache.StoreCondReq_miss_rate::cpu0.data     0.040000                       # miss rate for StoreCondReq accesses
system.cpu0.dcache.StoreCondReq_miss_rate::total     0.040000                       # miss rate for StoreCondReq accesses
system.cpu0.dcache.demand_miss_rate::cpu0.data     0.000152                       # miss rate for demand accesses
system.cpu0.dcache.demand_miss_rate::total     0.000152                       # miss rate for demand accesses
system.cpu0.dcache.overall_miss_rate::cpu0.data     0.000152                       # miss rate for overall accesses
system.cpu0.dcache.overall_miss_rate::total     0.000152                       # miss rate for overall accesses
system.cpu0.dcache.ReadReq_avg_miss_latency::cpu0.data 43570.440529                       # average ReadReq miss latency
system.cpu0.dcache.ReadReq_avg_miss_latency::total 43570.440529                       # average ReadReq miss latency
system.cpu0.dcache.WriteReq_avg_miss_latency::cpu0.data 49167.631253                       # average WriteReq miss latency
system.cpu0.dcache.WriteReq_avg_miss_latency::total 49167.631253                       # average WriteReq miss latency
system.cpu0.dcache.LoadLockedReq_avg_miss_latency::cpu0.data        44500                       # average LoadLockedReq miss latency
system.cpu0.dcache.LoadLockedReq_avg_miss_latency::total        44500                       # average LoadLockedReq miss latency
system.cpu0.dcache.StoreCondReq_avg_miss_latency::cpu0.data         7500                       # average StoreCondReq miss latency
system.cpu0.dcache.StoreCondReq_avg_miss_latency::total         7500                       # average StoreCondReq miss latency
system.cpu0.dcache.demand_avg_miss_latency::cpu0.data 48687.448980                       # average overall miss latency
system.cpu0.dcache.demand_avg_miss_latency::total 48687.448980                       # average overall miss latency
system.cpu0.dcache.overall_avg_miss_latency::cpu0.data 48687.448980                       # average overall miss latency
system.cpu0.dcache.overall_avg_miss_latency::total 48687.448980                       # average overall miss latency
system.cpu0.dcache.blocked_cycles::no_mshrs            0                       # number of cycles access was blocked
system.cpu0.dcache.blocked_cycles::no_targets            0                       # number of cycles access was blocked
system.cpu0.dcache.blocked::no_mshrs                0                       # number of cycles access was blocked
system.cpu0.dcache.blocked::no_targets              0                       # number of cycles access was blocked
system.cpu0.dcache.avg_blocked_cycles::no_mshrs          nan                       # average number of cycles each access was blocked
system.cpu0.dcache.avg_blocked_cycles::no_targets          nan                       # average number of cycles each access was blocked
system.cpu0.dcache.fast_writes                      0                       # number of fast writes performed
system.cpu0.dcache.cache_copies                     0                       # number of cache copies performed
system.cpu0.dcache.writebacks::writebacks           18                       # number of writebacks
system.cpu0.dcache.writebacks::total               18                       # number of writebacks
system.cpu0.dcache.ReadReq_mshr_hits::cpu0.data           78                       # number of ReadReq MSHR hits
system.cpu0.dcache.ReadReq_mshr_hits::total           78                       # number of ReadReq MSHR hits
system.cpu0.dcache.WriteReq_mshr_hits::cpu0.data         2221                       # number of WriteReq MSHR hits
system.cpu0.dcache.WriteReq_mshr_hits::total         2221                       # number of WriteReq MSHR hits
system.cpu0.dcache.LoadLockedReq_mshr_hits::cpu0.data            3                       # number of LoadLockedReq MSHR hits
system.cpu0.dcache.LoadLockedReq_mshr_hits::total            3                       # number of LoadLockedReq MSHR hits
system.cpu0.dcache.demand_mshr_hits::cpu0.data         2299                       # number of demand (read+write) MSHR hits
system.cpu0.dcache.demand_mshr_hits::total         2299                       # number of demand (read+write) MSHR hits
system.cpu0.dcache.overall_mshr_hits::cpu0.data         2299                       # number of overall MSHR hits
system.cpu0.dcache.overall_mshr_hits::total         2299                       # number of overall MSHR hits
system.cpu0.dcache.ReadReq_mshr_misses::cpu0.data          149                       # number of ReadReq MSHR misses
system.cpu0.dcache.ReadReq_mshr_misses::total          149                       # number of ReadReq MSHR misses
system.cpu0.dcache.WriteReq_mshr_misses::cpu0.data          198                       # number of WriteReq MSHR misses
system.cpu0.dcache.WriteReq_mshr_misses::total          198                       # number of WriteReq MSHR misses
system.cpu0.dcache.StoreCondReq_mshr_misses::cpu0.data            1                       # number of StoreCondReq MSHR misses
system.cpu0.dcache.StoreCondReq_mshr_misses::total            1                       # number of StoreCondReq MSHR misses
system.cpu0.dcache.demand_mshr_misses::cpu0.data          347                       # number of demand (read+write) MSHR misses
system.cpu0.dcache.demand_mshr_misses::total          347                       # number of demand (read+write) MSHR misses
system.cpu0.dcache.overall_mshr_misses::cpu0.data          347                       # number of overall MSHR misses
system.cpu0.dcache.overall_mshr_misses::total          347                       # number of overall MSHR misses
system.cpu0.dcache.ReadReq_mshr_miss_latency::cpu0.data      6225506                       # number of ReadReq MSHR miss cycles
system.cpu0.dcache.ReadReq_mshr_miss_latency::total      6225506                       # number of ReadReq MSHR miss cycles
system.cpu0.dcache.WriteReq_mshr_miss_latency::cpu0.data     10802500                       # number of WriteReq MSHR miss cycles
system.cpu0.dcache.WriteReq_mshr_miss_latency::total     10802500                       # number of WriteReq MSHR miss cycles
system.cpu0.dcache.StoreCondReq_mshr_miss_latency::cpu0.data         4500                       # number of StoreCondReq MSHR miss cycles
system.cpu0.dcache.StoreCondReq_mshr_miss_latency::total         4500                       # number of StoreCondReq MSHR miss cycles
system.cpu0.dcache.demand_mshr_miss_latency::cpu0.data     17028006                       # number of demand (read+write) MSHR miss cycles
system.cpu0.dcache.demand_mshr_miss_latency::total     17028006                       # number of demand (read+write) MSHR miss cycles
system.cpu0.dcache.overall_mshr_miss_latency::cpu0.data     17028006                       # number of overall MSHR miss cycles
system.cpu0.dcache.overall_mshr_miss_latency::total     17028006                       # number of overall MSHR miss cycles
system.cpu0.dcache.ReadReq_mshr_miss_rate::cpu0.data     0.000017                       # mshr miss rate for ReadReq accesses
system.cpu0.dcache.ReadReq_mshr_miss_rate::total     0.000017                       # mshr miss rate for ReadReq accesses
system.cpu0.dcache.WriteReq_mshr_miss_rate::cpu0.data     0.000023                       # mshr miss rate for WriteReq accesses
system.cpu0.dcache.WriteReq_mshr_miss_rate::total     0.000023                       # mshr miss rate for WriteReq accesses
system.cpu0.dcache.StoreCondReq_mshr_miss_rate::cpu0.data     0.040000                       # mshr miss rate for StoreCondReq accesses
system.cpu0.dcache.StoreCondReq_mshr_miss_rate::total     0.040000                       # mshr miss rate for StoreCondReq accesses
system.cpu0.dcache.demand_mshr_miss_rate::cpu0.data     0.000020                       # mshr miss rate for demand accesses
system.cpu0.dcache.demand_mshr_miss_rate::total     0.000020                       # mshr miss rate for demand accesses
system.cpu0.dcache.overall_mshr_miss_rate::cpu0.data     0.000020                       # mshr miss rate for overall accesses
system.cpu0.dcache.overall_mshr_miss_rate::total     0.000020                       # mshr miss rate for overall accesses
system.cpu0.dcache.ReadReq_avg_mshr_miss_latency::cpu0.data 41781.919463                       # average ReadReq mshr miss latency
system.cpu0.dcache.ReadReq_avg_mshr_miss_latency::total 41781.919463                       # average ReadReq mshr miss latency
system.cpu0.dcache.WriteReq_avg_mshr_miss_latency::cpu0.data 54558.080808                       # average WriteReq mshr miss latency
system.cpu0.dcache.WriteReq_avg_mshr_miss_latency::total 54558.080808                       # average WriteReq mshr miss latency
system.cpu0.dcache.StoreCondReq_avg_mshr_miss_latency::cpu0.data         4500                       # average StoreCondReq mshr miss latency
system.cpu0.dcache.StoreCondReq_avg_mshr_miss_latency::total         4500                       # average StoreCondReq mshr miss latency
system.cpu0.dcache.demand_avg_mshr_miss_latency::cpu0.data 49072.063401                       # average overall mshr miss latency
system.cpu0.dcache.demand_avg_mshr_miss_latency::total 49072.063401                       # average overall mshr miss latency
system.cpu0.dcache.overall_avg_mshr_miss_latency::cpu0.data 49072.063401                       # average overall mshr miss latency
system.cpu0.dcache.overall_avg_mshr_miss_latency::total 49072.063401                       # average overall mshr miss latency
system.cpu0.dcache.no_allocate_misses               0                       # Number of misses that were no-allocate
system.cpu0.icache.tags.replacements               66                       # number of replacements
system.cpu0.icache.tags.tagsinuse          291.808035                       # Cycle average of tags in use
system.cpu0.icache.tags.total_refs               2105                       # Total number of references to valid blocks.
[...]
system.l2.demand_avg_mshr_miss_latency::cpu8.data 40720.752089                       # average overall mshr miss latency
system.l2.demand_avg_mshr_miss_latency::total 40676.732959                       # average overall mshr miss latency
system.l2.overall_avg_mshr_miss_latency::cpu0.inst 41028.490028                       # average overall mshr miss latency
system.l2.overall_avg_mshr_miss_latency::cpu0.data 41271.626298                       # average overall mshr miss latency
system.l2.overall_avg_mshr_miss_latency::cpu1.inst 41060.185185                       # average overall mshr miss latency
system.l2.overall_avg_mshr_miss_latency::cpu1.data 40977.355072                       # average overall mshr miss latency
system.l2.overall_avg_mshr_miss_latency::cpu2.inst 40656.716418                       # average overall mshr miss latency
system.l2.overall_avg_mshr_miss_latency::cpu2.data 40806.755260                       # average overall mshr miss latency
system.l2.overall_avg_mshr_miss_latency::cpu3.inst 40792.682927                       # average overall mshr miss latency
system.l2.overall_avg_mshr_miss_latency::cpu3.data 40613.856589                       # average overall mshr miss latency
system.l2.overall_avg_mshr_miss_latency::cpu4.inst        40750                       # average overall mshr miss latency
system.l2.overall_avg_mshr_miss_latency::cpu4.data 40619.172342                       # average overall mshr miss latency
system.l2.overall_avg_mshr_miss_latency::cpu5.inst 41679.487179                       # average overall mshr miss latency
system.l2.overall_avg_mshr_miss_latency::cpu5.data 40525.824653                       # average overall mshr miss latency
system.l2.overall_avg_mshr_miss_latency::cpu6.inst        40500                       # average overall mshr miss latency
system.l2.overall_avg_mshr_miss_latency::cpu6.data 40611.083250                       # average overall mshr miss latency
system.l2.overall_avg_mshr_miss_latency::cpu7.inst 40641.666667                       # average overall mshr miss latency
system.l2.overall_avg_mshr_miss_latency::cpu7.data 40656.383018                       # average overall mshr miss latency
system.l2.overall_avg_mshr_miss_latency::cpu8.inst 40630.136986                       # average overall mshr miss latency
system.l2.overall_avg_mshr_miss_latency::cpu8.data 40720.752089                       # average overall mshr miss latency
system.l2.overall_avg_mshr_miss_latency::total 40676.732959                       # average overall mshr miss latency
system.l2.no_allocate_misses                        0                       # Number of misses that were no-allocate
system.membus.trans_dist::ReadReq               11038                       # Transaction distribution
system.membus.trans_dist::ReadResp              11038                       # Transaction distribution
system.membus.trans_dist::Writeback               193                       # Transaction distribution
system.membus.trans_dist::UpgradeReq           148230                       # Transaction distribution
system.membus.trans_dist::SCUpgradeReq         123873                       # Transaction distribution
system.membus.trans_dist::UpgradeResp          106928                       # Transaction distribution
system.membus.trans_dist::SCUpgradeFailReq            9                       # Transaction distribution
system.membus.trans_dist::ReadExReq              1131                       # Transaction distribution
system.membus.trans_dist::ReadExResp             1064                       # Transaction distribution
system.membus.pkt_count_system.l2.mem_side::system.physmem.port       403504                       # Packet count per connected master and slave (bytes)
system.membus.pkt_count::total                 403504                       # Packet count per connected master and slave (bytes)
system.membus.pkt_size_system.l2.mem_side::system.physmem.port       786880                       # Cumulative packet size per connected master and slave (bytes)
system.membus.pkt_size::total                  786880                       # Cumulative packet size per connected master and slave (bytes)
system.membus.snoops                           165251                       # Total snoops (count)
system.membus.snoop_fanout::samples            284840                       # Request fanout histogram
system.membus.snoop_fanout::mean                    0                       # Request fanout histogram
system.membus.snoop_fanout::stdev                   0                       # Request fanout histogram
system.membus.snoop_fanout::underflows              0      0.00%      0.00% # Request fanout histogram
system.membus.snoop_fanout::0                  284840    100.00%    100.00% # Request fanout histogram
system.membus.snoop_fanout::1                       0      0.00%    100.00% # Request fanout histogram
system.membus.snoop_fanout::overflows               0      0.00%    100.00% # Request fanout histogram
system.membus.snoop_fanout::min_value               0                       # Request fanout histogram
system.membus.snoop_fanout::max_value               0                       # Request fanout histogram
system.membus.snoop_fanout::total              284840                       # Request fanout histogram
system.membus.reqLayer0.occupancy           177251842                       # Layer occupancy (ticks)
system.membus.reqLayer0.utilization               1.0                       # Layer utilization (%)
system.membus.respLayer1.occupancy          223926435                       # Layer occupancy (ticks)
system.membus.respLayer1.utilization              1.3                       # Layer utilization (%)
system.tol2bus.trans_dist::ReadReq             585489                       # Transaction distribution
system.tol2bus.trans_dist::ReadResp            584634                       # Transaction distribution
system.tol2bus.trans_dist::ReadRespWithInvalidate          855                       # Transaction distribution
system.tol2bus.trans_dist::Writeback             1099                       # Transaction distribution
system.tol2bus.trans_dist::UpgradeReq          148265                       # Transaction distribution
system.tol2bus.trans_dist::SCUpgradeReq        123877                       # Transaction distribution
system.tol2bus.trans_dist::UpgradeResp         272142                       # Transaction distribution
system.tol2bus.trans_dist::SCUpgradeFailReq        47640                       # Transaction distribution
system.tol2bus.trans_dist::UpgradeFailResp        47640                       # Transaction distribution
system.tol2bus.trans_dist::ReadExReq             2845                       # Transaction distribution
system.tol2bus.trans_dist::ReadExResp            2845                       # Transaction distribution
system.tol2bus.pkt_count_system.cpu0.icache.mem_side::system.l2.cpu_side          776                       # Packet count per connected master and slave (bytes)
system.tol2bus.pkt_count_system.cpu0.dcache.mem_side::system.l2.cpu_side          700                       # Packet count per connected master and slave (bytes)
system.tol2bus.pkt_count_system.cpu1.icache.mem_side::system.l2.cpu_side         2194                       # Packet count per connected master and slave (bytes)
system.tol2bus.pkt_count_system.cpu1.dcache.mem_side::system.l2.cpu_side        64980                       # Packet count per connected master and slave (bytes)
system.tol2bus.pkt_count_system.cpu2.icache.mem_side::system.l2.cpu_side         1740                       # Packet count per connected master and slave (bytes)
system.tol2bus.pkt_count_system.cpu2.dcache.mem_side::system.l2.cpu_side        98192                       # Packet count per connected master and slave (bytes)
system.tol2bus.pkt_count_system.cpu3.icache.mem_side::system.l2.cpu_side         2162                       # Packet count per connected master and slave (bytes)
system.tol2bus.pkt_count_system.cpu3.dcache.mem_side::system.l2.cpu_side       106626                       # Packet count per connected master and slave (bytes)
system.tol2bus.pkt_count_system.cpu4.icache.mem_side::system.l2.cpu_side         2204                       # Packet count per connected master and slave (bytes)
system.tol2bus.pkt_count_system.cpu4.dcache.mem_side::system.l2.cpu_side       160986                       # Packet count per connected master and slave (bytes)
system.tol2bus.pkt_count_system.cpu5.icache.mem_side::system.l2.cpu_side         2206                       # Packet count per connected master and slave (bytes)
system.tol2bus.pkt_count_system.cpu5.dcache.mem_side::system.l2.cpu_side       176387                       # Packet count per connected master and slave (bytes)
system.tol2bus.pkt_count_system.cpu6.icache.mem_side::system.l2.cpu_side         2138                       # Packet count per connected master and slave (bytes)
system.tol2bus.pkt_count_system.cpu6.dcache.mem_side::system.l2.cpu_side       168041                       # Packet count per connected master and slave (bytes)
system.tol2bus.pkt_count_system.cpu7.icache.mem_side::system.l2.cpu_side         2304                       # Packet count per connected master and slave (bytes)
system.tol2bus.pkt_count_system.cpu7.dcache.mem_side::system.l2.cpu_side       170870                       # Packet count per connected master and slave (bytes)
system.tol2bus.pkt_count_system.cpu8.icache.mem_side::system.l2.cpu_side         2288                       # Packet count per connected master and slave (bytes)
system.tol2bus.pkt_count_system.cpu8.dcache.mem_side::system.l2.cpu_side        87775                       # Packet count per connected master and slave (bytes)
system.tol2bus.pkt_count::total               1052569                       # Packet count per connected master and slave (bytes)
system.tol2bus.pkt_size_system.cpu0.icache.mem_side::system.l2.cpu_side        24832                       # Cumulative packet size per connected master and slave (bytes)
system.tol2bus.pkt_size_system.cpu0.dcache.mem_side::system.l2.cpu_side        22400                       # Cumulative packet size per connected master and slave (bytes)
system.tol2bus.pkt_size_system.cpu1.icache.mem_side::system.l2.cpu_side        70208                       # Cumulative packet size per connected master and slave (bytes)
system.tol2bus.pkt_size_system.cpu1.dcache.mem_side::system.l2.cpu_side        66560                       # Cumulative packet size per connected master and slave (bytes)
system.tol2bus.pkt_size_system.cpu2.icache.mem_side::system.l2.cpu_side        55680                       # Cumulative packet size per connected master and slave (bytes)
system.tol2bus.pkt_size_system.cpu2.dcache.mem_side::system.l2.cpu_side       137472                       # Cumulative packet size per connected master and slave (bytes)
system.tol2bus.pkt_size_system.cpu3.icache.mem_side::system.l2.cpu_side        69184                       # Cumulative packet size per connected master and slave (bytes)
system.tol2bus.pkt_size_system.cpu3.dcache.mem_side::system.l2.cpu_side       172800                       # Cumulative packet size per connected master and slave (bytes)
system.tol2bus.pkt_size_system.cpu4.icache.mem_side::system.l2.cpu_side        70528                       # Cumulative packet size per connected master and slave (bytes)
system.tol2bus.pkt_size_system.cpu4.dcache.mem_side::system.l2.cpu_side       295296                       # Cumulative packet size per connected master and slave (bytes)
system.tol2bus.pkt_size_system.cpu5.icache.mem_side::system.l2.cpu_side        70592                       # Cumulative packet size per connected master and slave (bytes)
system.tol2bus.pkt_size_system.cpu5.dcache.mem_side::system.l2.cpu_side       380224                       # Cumulative packet size per connected master and slave (bytes)
system.tol2bus.pkt_size_system.cpu6.icache.mem_side::system.l2.cpu_side        68416                       # Cumulative packet size per connected master and slave (bytes)
system.tol2bus.pkt_size_system.cpu6.dcache.mem_side::system.l2.cpu_side       347584                       # Cumulative packet size per connected master and slave (bytes)
system.tol2bus.pkt_size_system.cpu7.icache.mem_side::system.l2.cpu_side        73728                       # Cumulative packet size per connected master and slave (bytes)
system.tol2bus.pkt_size_system.cpu7.dcache.mem_side::system.l2.cpu_side       275008                       # Cumulative packet size per connected master and slave (bytes)
system.tol2bus.pkt_size_system.cpu8.icache.mem_side::system.l2.cpu_side        73216                       # Cumulative packet size per connected master and slave (bytes)
system.tol2bus.pkt_size_system.cpu8.dcache.mem_side::system.l2.cpu_side       125376                       # Cumulative packet size per connected master and slave (bytes)
system.tol2bus.pkt_size::total                2399104                       # Cumulative packet size per connected master and slave (bytes)
system.tol2bus.snoops                          764762                       # Total snoops (count)
system.tol2bus.snoop_fanout::samples           909219                       # Request fanout histogram
system.tol2bus.snoop_fanout::mean                  17                       # Request fanout histogram
system.tol2bus.snoop_fanout::stdev                  0                       # Request fanout histogram
system.tol2bus.snoop_fanout::underflows             0      0.00%      0.00% # Request fanout histogram
system.tol2bus.snoop_fanout::0                      0      0.00%      0.00% # Request fanout histogram
system.tol2bus.snoop_fanout::1                      0      0.00%      0.00% # Request fanout histogram
system.tol2bus.snoop_fanout::2                      0      0.00%      0.00% # Request fanout histogram
system.tol2bus.snoop_fanout::3                      0      0.00%      0.00% # Request fanout histogram
system.tol2bus.snoop_fanout::4                      0      0.00%      0.00% # Request fanout histogram
system.tol2bus.snoop_fanout::5                      0      0.00%      0.00% # Request fanout histogram
system.tol2bus.snoop_fanout::6                      0      0.00%      0.00% # Request fanout histogram
system.tol2bus.snoop_fanout::7                      0      0.00%      0.00% # Request fanout histogram
system.tol2bus.snoop_fanout::8                      0      0.00%      0.00% # Request fanout histogram
system.tol2bus.snoop_fanout::9                      0      0.00%      0.00% # Request fanout histogram
system.tol2bus.snoop_fanout::10                     0      0.00%      0.00% # Request fanout histogram
system.tol2bus.snoop_fanout::11                     0      0.00%      0.00% # Request fanout histogram
system.tol2bus.snoop_fanout::12                     0      0.00%      0.00% # Request fanout histogram
system.tol2bus.snoop_fanout::13                     0      0.00%      0.00% # Request fanout histogram
system.tol2bus.snoop_fanout::14                     0      0.00%      0.00% # Request fanout histogram
system.tol2bus.snoop_fanout::15                     0      0.00%      0.00% # Request fanout histogram
system.tol2bus.snoop_fanout::16                     0      0.00%      0.00% # Request fanout histogram
system.tol2bus.snoop_fanout::17                909219    100.00%    100.00% # Request fanout histogram
system.tol2bus.snoop_fanout::18                     0      0.00%    100.00% # Request fanout histogram
system.tol2bus.snoop_fanout::overflows              0      0.00%    100.00% # Request fanout histogram
system.tol2bus.snoop_fanout::min_value             17                       # Request fanout histogram
system.tol2bus.snoop_fanout::max_value             17                       # Request fanout histogram
system.tol2bus.snoop_fanout::total             909219                       # Request fanout histogram
system.tol2bus.reqLayer0.occupancy          459337273                       # Layer occupancy (ticks)
system.tol2bus.reqLayer0.utilization              2.6                       # Layer utilization (%)
system.tol2bus.respLayer0.occupancy            582998                       # Layer occupancy (ticks)
system.tol2bus.respLayer0.utilization             0.0                       # Layer utilization (%)
system.tol2bus.respLayer1.occupancy            519994                       # Layer occupancy (ticks)
system.tol2bus.respLayer1.utilization             0.0                       # Layer utilization (%)
system.tol2bus.respLayer4.occupancy           1658450                       # Layer occupancy (ticks)
system.tol2bus.respLayer4.utilization             0.0                       # Layer utilization (%)
system.tol2bus.respLayer5.occupancy          73004157                       # Layer occupancy (ticks)
system.tol2bus.respLayer5.utilization             0.4                       # Layer utilization (%)
system.tol2bus.respLayer8.occupancy           1343396                       # Layer occupancy (ticks)
system.tol2bus.respLayer8.utilization             0.0                       # Layer utilization (%)
system.tol2bus.respLayer9.occupancy         109916180                       # Layer occupancy (ticks)
system.tol2bus.respLayer9.utilization             0.6                       # Layer utilization (%)
system.tol2bus.respLayer12.occupancy          1644915                       # Layer occupancy (ticks)
system.tol2bus.respLayer12.utilization            0.0                       # Layer utilization (%)
system.tol2bus.respLayer13.occupancy        113160739                       # Layer occupancy (ticks)
system.tol2bus.respLayer13.utilization            0.6                       # Layer utilization (%)
system.tol2bus.respLayer16.occupancy          1662463                       # Layer occupancy (ticks)
system.tol2bus.respLayer16.utilization            0.0                       # Layer utilization (%)
system.tol2bus.respLayer17.occupancy        174876047                       # Layer occupancy (ticks)
system.tol2bus.respLayer17.utilization            1.0                       # Layer utilization (%)
system.tol2bus.respLayer20.occupancy          1656494                       # Layer occupancy (ticks)
system.tol2bus.respLayer20.utilization            0.0                       # Layer utilization (%)
system.tol2bus.respLayer21.occupancy        186077560                       # Layer occupancy (ticks)
system.tol2bus.respLayer21.utilization            1.1                       # Layer utilization (%)
system.tol2bus.respLayer24.occupancy          1610484                       # Layer occupancy (ticks)
system.tol2bus.respLayer24.utilization            0.0                       # Layer utilization (%)
system.tol2bus.respLayer25.occupancy        173906569                       # Layer occupancy (ticks)
system.tol2bus.respLayer25.utilization            1.0                       # Layer utilization (%)
system.tol2bus.respLayer28.occupancy          1737969                       # Layer occupancy (ticks)
system.tol2bus.respLayer28.utilization            0.0                       # Layer utilization (%)
system.tol2bus.respLayer29.occupancy        183933201                       # Layer occupancy (ticks)
system.tol2bus.respLayer29.utilization            1.1                       # Layer utilization (%)
system.tol2bus.respLayer32.occupancy          1721489                       # Layer occupancy (ticks)
system.tol2bus.respLayer32.utilization            0.0                       # Layer utilization (%)
system.tol2bus.respLayer33.occupancy         95015746                       # Layer occupancy (ticks)
system.tol2bus.respLayer33.utilization            0.5                       # Layer utilization (%)

---------- End Simulation Statistics   ----------
