
---------- Begin Simulation Statistics ----------
sim_seconds                                  0.000085                       # Number of seconds simulated
sim_ticks                                    85443000                       # Number of ticks simulated
final_tick                                   85443000                       # Number of ticks from beginning of simulation (restored from checkpoints and never reset)
sim_freq                                 1000000000000                       # Frequency of simulated ticks
host_inst_rate                                 184715                       # Simulator instruction rate (inst/s)
host_op_rate                                   198438                       # Simulator op (including micro ops) rate (op/s)
host_tick_rate                               65268303                       # Simulator tick rate (ticks/s)
host_mem_usage                                 685292                       # Number of bytes of host memory used
host_seconds                                     1.31                       # Real time elapsed on the host
sim_insts                                      241807                       # Number of instructions simulated
sim_ops                                        259774                       # Number of ops (including micro ops) simulated
system.voltage_domain.voltage                       1                       # Voltage in Volts
system.clk_domain.clock                          1000                       # Clock period in ticks
system.physmem.bytes_read::cpu0.inst            20608                       # Number of bytes read from this memory
system.physmem.bytes_read::cpu0.data            16896                       # Number of bytes read from this memory
system.physmem.bytes_read::cpu1.inst             6336                       # Number of bytes read from this memory
system.physmem.bytes_read::cpu1.data             4416                       # Number of bytes read from this memory
system.physmem.bytes_read::cpu2.inst             6656                       # Number of bytes read from this memory
system.physmem.bytes_read::cpu2.data             4032                       # Number of bytes read from this memory
system.physmem.bytes_read::total                58944                       # Number of bytes read from this memory
system.physmem.bytes_inst_read::cpu0.inst        20608                       # Number of instructions bytes read from this memory
system.physmem.bytes_inst_read::cpu1.inst         6336                       # Number of instructions bytes read from this memory
system.physmem.bytes_inst_read::cpu2.inst         6656                       # Number of instructions bytes read from this memory
system.physmem.bytes_inst_read::total           33600                       # Number of instructions bytes read from this memory
system.physmem.num_reads::cpu0.inst               322                       # Number of read requests responded to by this memory
system.physmem.num_reads::cpu0.data               264                       # Number of read requests responded to by this memory
system.physmem.num_reads::cpu1.inst                99                       # Number of read requests responded to by this memory
system.physmem.num_reads::cpu1.data                69                       # Number of read requests responded to by this memory
system.physmem.num_reads::cpu2.inst               104                       # Number of read requests responded to by this memory
system.physmem.num_reads::cpu2.data                63                       # Number of read requests responded to by this memory
system.physmem.num_reads::total                   921                       # Number of read requests responded to by this memory
system.physmem.bw_read::cpu0.inst           241190033                       # Total read bandwidth from this memory (bytes/s)
system.physmem.bw_read::cpu0.data           197745866                       # Total read bandwidth from this memory (bytes/s)
system.physmem.bw_read::cpu1.inst            74154700                       # Total read bandwidth from this memory (bytes/s)
system.physmem.bw_read::cpu1.data            51683579                       # Total read bandwidth from this memory (bytes/s)
system.physmem.bw_read::cpu2.inst            77899886                       # Total read bandwidth from this memory (bytes/s)
system.physmem.bw_read::cpu2.data            47189354                       # Total read bandwidth from this memory (bytes/s)
system.physmem.bw_read::total               689863418                       # Total read bandwidth from this memory (bytes/s)
system.physmem.bw_inst_read::cpu0.inst      241190033                       # Instruction read bandwidth from this memory (bytes/s)
system.physmem.bw_inst_read::cpu1.inst       74154700                       # Instruction read bandwidth from this memory (bytes/s)
system.physmem.bw_inst_read::cpu2.inst       77899886                       # Instruction read bandwidth from this memory (bytes/s)
system.physmem.bw_inst_read::total          393244619                       # Instruction read bandwidth from this memory (bytes/s)
system.physmem.bw_total::cpu0.inst          241190033                       # Total bandwidth to/from this memory (bytes/s)
system.physmem.bw_total::cpu0.data          197745866                       # Total bandwidth to/from this memory (bytes/s)
system.physmem.bw_total::cpu1.inst           74154700                       # Total bandwidth to/from this memory (bytes/s)
system.physmem.bw_total::cpu1.data           51683579                       # Total bandwidth to/from this memory (bytes/s)
system.physmem.bw_total::cpu2.inst           77899886                       # Total bandwidth to/from this memory (bytes/s)
system.physmem.bw_total::cpu2.data           47189354                       # Total bandwidth to/from this memory (bytes/s)
system.physmem.bw_total::total              689863418                       # Total bandwidth to/from this memory (bytes/s)
system.cpu0.branchPred.lookups                  32347                       # Number of BP lookups
system.cpu0.branchPred.condPredicted            31316                       # Number of conditional branches predicted
system.cpu0.branchPred.condIncorrect              694                       # Number of conditional branches incorrect
system.cpu0.branchPred.BTBLookups               30225                       # Number of BTB lookups
system.cpu0.branchPred.BTBHits                  29842                       # Number of BTB hits
system.cpu0.branchPred.BTBCorrect                   0                       # Number of correct BTB predictions (this stat may not work properly.
system.cpu0.branchPred.BTBHitPct            98.732837                       # BTB Hit Percentage
system.cpu0.branchPred.usedRAS                    389                       # Number of times the RAS was used to get a target.
system.cpu0.branchPred.RASInCorrect                51                       # Number of incorrect RAS predictions.
system.cpu0.dstage2_mmu.stage2_tlb.walker.walks            0                       # Table walker walks requested
system.cpu0.dstage2_mmu.stage2_tlb.walker.walkRequestOrigin_Requested::Data            0                       # Table walker requests started/completed, data/inst
system.cpu0.dstage2_mmu.stage2_tlb.walker.walkRequestOrigin_Requested::Inst            0                       # Table walker requests started/completed, data/inst
system.cpu0.dstage2_mmu.stage2_tlb.walker.walkRequestOrigin_Requested::total            0                       # Table walker requests started/completed, data/inst
system.cpu0.dstage2_mmu.stage2_tlb.walker.walkRequestOrigin_Completed::Data            0                       # Table walker requests started/completed, data/inst
system.cpu0.dstage2_mmu.stage2_tlb.walker.walkRequestOrigin_Completed::Inst            0                       # Table walker requests started/completed, data/inst
system.cpu0.dstage2_mmu.stage2_tlb.walker.walkRequestOrigin_Completed::total            0                       # Table walker requests started/completed, data/inst
system.cpu0.dstage2_mmu.stage2_tlb.walker.walkRequestOrigin::total            0                       # Table walker requests started/completed, data/inst
system.cpu0.dstage2_mmu.stage2_tlb.inst_hits            0                       # ITB inst hits
system.cpu0.dstage2_mmu.stage2_tlb.inst_misses            0                       # ITB inst misses
system.cpu0.dstage2_mmu.stage2_tlb.read_hits            0                       # DTB read hits
system.cpu0.dstage2_mmu.stage2_tlb.read_misses            0                       # DTB read misses
system.cpu0.dstage2_mmu.stage2_tlb.write_hits            0                       # DTB write hits
system.cpu0.dstage2_mmu.stage2_tlb.write_misses            0                       # DTB write misses
system.cpu0.dstage2_mmu.stage2_tlb.flush_tlb            0                       # Number of times complete TLB was flushed
system.cpu0.dstage2_mmu.stage2_tlb.flush_tlb_mva            0                       # Number of times TLB was flushed by MVA
system.cpu0.dstage2_mmu.stage2_tlb.flush_tlb_mva_asid            0                       # Number of times TLB was flushed by MVA & ASID
system.cpu0.dstage2_mmu.stage2_tlb.flush_tlb_asid            0                       # Number of times TLB was flushed by ASID
system.cpu0.dstage2_mmu.stage2_tlb.flush_entries            0                       # Number of entries that have been flushed from TLB
system.cpu0.dstage2_mmu.stage2_tlb.align_faults            0                       # Number of TLB faults due to alignment restrictions
system.cpu0.dstage2_mmu.stage2_tlb.prefetch_faults            0                       # Number of TLB faults due to prefetch
system.cpu0.dstage2_mmu.stage2_tlb.domain_faults            0                       # Number of TLB faults due to domain restrictions
system.cpu0.dstage2_mmu.stage2_tlb.perms_faults            0                       # Number of TLB faults due to permissions restrictions
system.cpu0.dstage2_mmu.stage2_tlb.read_accesses            0                       # DTB read accesses
system.cpu0.dstage2_mmu.stage2_tlb.write_accesses            0                       # DTB write accesses
system.cpu0.dstage2_mmu.stage2_tlb.inst_accesses            0                       # ITB inst accesses
system.cpu0.dstage2_mmu.stage2_tlb.hits             0                       # DTB hits
system.cpu0.dstage2_mmu.stage2_tlb.misses            0                       # DTB misses
system.cpu0.dstage2_mmu.stage2_tlb.accesses            0                       # DTB accesses
system.cpu0.dtb.walker.walks                        0                       # Table walker walks requested
system.cpu0.dtb.walker.walkRequestOrigin_Requested::Data            0                       # Table walker requests started/completed, data/inst
system.cpu0.dtb.walker.walkRequestOrigin_Requested::Inst            0                       # Table walker requests started/completed, data/inst
system.cpu0.dtb.walker.walkRequestOrigin_Requested::total            0                       # Table walker requests started/completed, data/inst
system.cpu0.dtb.walker.walkRequestOrigin_Completed::Data            0                       # Table walker requests started/completed, data/inst
system.cpu0.dtb.walker.walkRequestOrigin_Completed::Inst            0                       # Table walker requests started/completed, data/inst
system.cpu0.dtb.walker.walkRequestOrigin_Completed::total            0                       # Table walker requests started/completed, data/inst
system.cpu0.dtb.walker.walkRequestOrigin::total            0                       # Table walker requests started/completed, data/inst
system.cpu0.dtb.inst_hits                           0                       # ITB inst hits
system.cpu0.dtb.inst_misses                         0                       # ITB inst misses
system.cpu0.dtb.read_hits                           0                       # DTB read hits
system.cpu0.dtb.read_misses                         0                       # DTB read misses
system.cpu0.dtb.write_hits                          0                       # DTB write hits
system.cpu0.dtb.write_misses                        0                       # DTB write misses
system.cpu0.dtb.flush_tlb                           0                       # Number of times complete TLB was flushed
system.cpu0.dtb.flush_tlb_mva                       0                       # Number of times TLB was flushed by MVA
system.cpu0.dtb.flush_tlb_mva_asid                  0                       # Number of times TLB was flushed by MVA & ASID
system.cpu0.dtb.flush_tlb_asid                      0                       # Number of times TLB was flushed by ASID
system.cpu0.dtb.flush_entries                       0                       # Number of entries that have been flushed from TLB
system.cpu0.dtb.align_faults                        0                       # Number of TLB faults due to alignment restrictions
system.cpu0.dtb.prefetch_faults                     0                       # Number of TLB faults due to prefetch
system.cpu0.dtb.domain_faults                       0                       # Number of TLB faults due to domain restrictions
system.cpu0.dtb.perms_faults                        0                       # Number of TLB faults due to permissions restrictions
system.cpu0.dtb.read_accesses                       0                       # DTB read accesses
system.cpu0.dtb.write_accesses                      0                       # DTB write accesses
system.cpu0.dtb.inst_accesses                       0                       # ITB inst accesses
system.cpu0.dtb.hits                                0                       # DTB hits
system.cpu0.dtb.misses                              0                       # DTB misses
system.cpu0.dtb.accesses                            0                       # DTB accesses
system.cpu0.istage2_mmu.stage2_tlb.walker.walks            0                       # Table walker walks requested
system.cpu0.istage2_mmu.stage2_tlb.walker.walkRequestOrigin_Requested::Data            0                       # Table walker requests started/completed, data/inst
system.cpu0.istage2_mmu.stage2_tlb.walker.walkRequestOrigin_Requested::Inst            0                       # Table walker requests started/completed, data/inst
system.cpu0.istage2_mmu.stage2_tlb.walker.walkRequestOrigin_Requested::total            0                       # Table walker requests started/completed, data/inst
system.cpu0.istage2_mmu.stage2_tlb.walker.walkRequestOrigin_Completed::Data            0                       # Table walker requests started/completed, data/inst
system.cpu0.istage2_mmu.stage2_tlb.walker.walkRequestOrigin_Completed::Inst            0                       # Table walker requests started/completed, data/inst
system.cpu0.istage2_mmu.stage2_tlb.walker.walkRequestOrigin_Completed::total            0                       # Table walker requests started/completed, data/inst
system.cpu0.istage2_mmu.stage2_tlb.walker.walkRequestOrigin::total            0                       # Table walker requests started/completed, data/inst
system.cpu0.istage2_mmu.stage2_tlb.inst_hits            0                       # ITB inst hits
system.cpu0.istage2_mmu.stage2_tlb.inst_misses            0                       # ITB inst misses
system.cpu0.istage2_mmu.stage2_tlb.read_hits            0                       # DTB read hits
system.cpu0.istage2_mmu.stage2_tlb.read_misses            0                       # DTB read misses
system.cpu0.istage2_mmu.stage2_tlb.write_hits            0                       # DTB write hits
system.cpu0.istage2_mmu.stage2_tlb.write_misses            0                       # DTB write misses
system.cpu0.istage2_mmu.stage2_tlb.flush_tlb            0                       # Number of times complete TLB was flushed
system.cpu0.istage2_mmu.stage2_tlb.flush_tlb_mva            0                       # Number of times TLB was flushed by MVA
system.cpu0.istage2_mmu.stage2_tlb.flush_tlb_mva_asid            0                       # Number of times TLB was flushed by MVA & ASID
system.cpu0.istage2_mmu.stage2_tlb.flush_tlb_asid            0                       # Number of times TLB was flushed by ASID
system.cpu0.istage2_mmu.stage2_tlb.flush_entries            0                       # Number of entries that have been flushed from TLB
system.cpu0.istage2_mmu.stage2_tlb.align_faults            0                       # Number of TLB faults due to alignment restrictions
system.cpu0.istage2_mmu.stage2_tlb.prefetch_faults            0                       # Number of TLB faults due to prefetch
system.cpu0.istage2_mmu.stage2_tlb.domain_faults            0                       # Number of TLB faults due to domain restrictions
system.cpu0.istage2_mmu.stage2_tlb.perms_faults            0                       # Number of TLB faults due to permissions restrictions
system.cpu0.istage2_mmu.stage2_tlb.read_accesses            0                       # DTB read accesses
system.cpu0.istage2_mmu.stage2_tlb.write_accesses            0                       # DTB write accesses
system.cpu0.istage2_mmu.stage2_tlb.inst_accesses            0                       # ITB inst accesses
system.cpu0.istage2_mmu.stage2_tlb.hits             0                       # DTB hits
system.cpu0.istage2_mmu.stage2_tlb.misses            0                       # DTB misses
system.cpu0.istage2_mmu.stage2_tlb.accesses            0                       # DTB accesses
system.cpu0.itb.walker.walks                        0                       # Table walker walks requested
system.cpu0.itb.walker.walkRequestOrigin_Requested::Data            0                       # Table walker requests started/completed, data/inst
system.cpu0.itb.walker.walkRequestOrigin_Requested::Inst            0                       # Table walker requests started/completed, data/inst
system.cpu0.itb.walker.walkRequestOrigin_Requested::total            0                       # Table walker requests started/completed, data/inst
system.cpu0.itb.walker.walkRequestOrigin_Completed::Data            0                       # Table walker requests started/completed, data/inst
system.cpu0.itb.walker.walkRequestOrigin_Completed::Inst            0                       # Table walker requests started/completed, data/inst
system.cpu0.itb.walker.walkRequestOrigin_Completed::total            0                       # Table walker requests started/completed, data/inst
system.cpu0.itb.walker.walkRequestOrigin::total            0                       # Table walker requests started/completed, data/inst
system.cpu0.itb.inst_hits                           0                       # ITB inst hits
system.cpu0.itb.inst_misses                         0                       # ITB inst misses
system.cpu0.itb.read_hits                           0                       # DTB read hits
system.cpu0.itb.read_misses                         0                       # DTB read misses
system.cpu0.itb.write_hits                          0                       # DTB write hits
system.cpu0.itb.write_misses                        0                       # DTB write misses
system.cpu0.itb.flush_tlb                           0                       # Number of times complete TLB was flushed
system.cpu0.itb.flush_tlb_mva                       0                       # Number of times TLB was flushed by MVA
system.cpu0.itb.flush_tlb_mva_asid                  0                       # Number of times TLB was flushed by MVA & ASID
system.cpu0.itb.flush_tlb_asid                      0                       # Number of times TLB was flushed by ASID
system.cpu0.itb.flush_entries                       0                       # Number of entries that have been flushed from TLB
system.cpu0.itb.align_faults                        0                       # Number of TLB faults due to alignment restrictions
system.cpu0.itb.prefetch_faults                     0                       # Number of TLB faults due to prefetch
system.cpu0.itb.domain_faults                       0                       # Number of TLB faults due to domain restrictions
system.cpu0.itb.perms_faults                        0                       # Number of TLB faults due to permissions restrictions
system.cpu0.itb.read_accesses                       0                       # DTB read accesses
system.cpu0.itb.write_accesses                      0                       # DTB write accesses
system.cpu0.itb.inst_accesses                       0                       # ITB inst accesses
system.cpu0.itb.hits                                0                       # DTB hits
system.cpu0.itb.misses                              0                       # DTB misses
system.cpu0.itb.accesses                            0                       # DTB accesses
system.cpu0.workload.num_syscalls                  50                       # Number of system calls
system.cpu0.numCycles                           85444                       # number of cpu cycles simulated
system.cpu0.numWorkItemsStarted                     0                       # number of work items this cpu started
system.cpu0.numWorkItemsCompleted                   0                       # number of work items this cpu completed
system.cpu0.fetch.icacheStallCycles              7828                       # Number of cycles fetch is stalled on an Icache miss
system.cpu0.fetch.Insts                        163241                       # Number of instructions fetch has processed
system.cpu0.fetch.Branches                      32347                       # Number of branches that fetch encountered
system.cpu0.fetch.predictedBranches             30231                       # Number of branches that fetch has predicted taken
system.cpu0.fetch.Cycles                        69305                       # Number of cycles fetch has run and was not squashing or blocked
system.cpu0.fetch.SquashCycles                   1434                       # Number of cycles fetch has spent squashing
system.cpu0.fetch.PendingTrapStallCycles          155                       # Number of stall cycles due to pending traps
system.cpu0.fetch.CacheLines                     2112                       # Number of cache lines fetched
system.cpu0.fetch.IcacheSquashes                  246                       # Number of outstanding Icache misses that were squashed
system.cpu0.fetch.rateDist::samples             78005                       # Number of instructions fetched each cycle (Total)
system.cpu0.fetch.rateDist::mean             2.155080                       # Number of instructions fetched each cycle (Total)
system.cpu0.fetch.rateDist::stdev            1.017330                       # Number of instructions fetched each cycle (Total)
system.cpu0.fetch.rateDist::underflows              0      0.00%      0.00% # Number of instructions fetched each cycle (Total)
system.cpu0.fetch.rateDist::0                   11512     14.76%     14.76% # Number of instructions fetched each cycle (Total)
system.cpu0.fetch.rateDist::1                     719      0.92%     15.68% # Number of instructions fetched each cycle (Total)
system.cpu0.fetch.rateDist::2                   29934     38.37%     54.05% # Number of instructions fetched each cycle (Total)
system.cpu0.fetch.rateDist::3                   35840     45.95%    100.00% # Number of instructions fetched each cycle (Total)
system.cpu0.fetch.rateDist::overflows               0      0.00%    100.00% # Number of instructions fetched each cycle (Total)
system.cpu0.fetch.rateDist::min_value               0                       # Number of instructions fetched each cycle (Total)
system.cpu0.fetch.rateDist::max_value               3                       # Number of instructions fetched each cycle (Total)
system.cpu0.fetch.rateDist::total               78005                       # Number of instructions fetched each cycle (Total)
system.cpu0.fetch.branchRate                 0.378575                       # Number of branch fetches per cycle
system.cpu0.fetch.rate                       1.910503                       # Number of inst fetches per cycle
system.cpu0.decode.IdleCycles                    7262                       # Number of cycles decode is idle
system.cpu0.decode.BlockedCycles                 4648                       # Number of cycles decode is blocked
system.cpu0.decode.RunCycles                    65020                       # Number of cycles decode is running
system.cpu0.decode.UnblockCycles                  535                       # Number of cycles decode is unblocking
system.cpu0.decode.SquashCycles                   540                       # Number of cycles decode is squashing
system.cpu0.decode.BranchResolved                 390                       # Number of times decode resolved a branch
system.cpu0.decode.BranchMispred                  193                       # Number of times decode detected a branch misprediction
system.cpu0.decode.DecodedInsts                165485                       # Number of instructions handled by decode
system.cpu0.decode.SquashedInsts                  431                       # Number of squashed instructions handled by decode
system.cpu0.rename.SquashCycles                   540                       # Number of cycles rename is squashing
system.cpu0.rename.IdleCycles                    7882                       # Number of cycles rename is idle
system.cpu0.rename.BlockCycles                    485                       # Number of cycles rename is blocking
system.cpu0.rename.serializeStallCycles          1728                       # count of cycles rename stalled for serializing inst
system.cpu0.rename.RunCycles                    64849                       # Number of cycles rename is running
system.cpu0.rename.UnblockCycles                 2521                       # Number of cycles rename is unblocking
system.cpu0.rename.RenamedInsts                164630                       # Number of instructions processed by rename
system.cpu0.rename.SQFullEvents                  2409                       # Number of times rename has blocked due to SQ full
system.cpu0.rename.RenamedOperands             166462                       # Number of destination operands rename has renamed
system.cpu0.rename.RenameLookups               762402                       # Number of register rename lookups that rename has made
system.cpu0.rename.int_rename_lookups          170586                       # Number of integer rename lookups
system.cpu0.rename.fp_rename_lookups               16                       # Number of floating rename lookups
system.cpu0.rename.CommittedMaps               159168                       # Number of HB maps that are committed
system.cpu0.rename.UndoneMaps                    7267                       # Number of HB maps that are undone due to squashing
system.cpu0.rename.serializingInsts                43                       # count of serializing insts renamed
system.cpu0.rename.tempSerializingInsts            42                       # count of temporary serializing insts renamed
system.cpu0.rename.skidInsts                     1045                       # count of insts added to the skid buffer
system.cpu0.memDep0.insertedLoads               61010                       # Number of loads inserted to the mem dependence unit.
system.cpu0.memDep0.insertedStores              33045                       # Number of stores inserted to the mem dependence unit.
system.cpu0.memDep0.conflictingLoads            29245                       # Number of conflicting loads.
system.cpu0.memDep0.conflictingStores           29201                       # Number of conflicting stores.
system.cpu0.iq.iqInstsAdded                    162944                       # Number of instructions added to the IQ (excludes non-spec)
system.cpu0.iq.iqNonSpecInstsAdded                 63                       # Number of non-speculative instructions added to the IQ
system.cpu0.iq.iqInstsIssued                   161183                       # Number of instructions issued
system.cpu0.iq.iqSquashedInstsIssued              138                       # Number of squashed instructions issued
system.cpu0.iq.iqSquashedInstsExamined           4833                       # Number of squashed instructions iterated over during squash; mainly for profiling
system.cpu0.iq.iqSquashedOperandsExamined        11791                       # Number of squashed operands that are examined and possibly removed from graph
system.cpu0.iq.iqSquashedNonSpecRemoved             3                       # Number of squashed non-spec instructions that were removed
system.cpu0.iq.issued_per_cycle::samples        78005                       # Number of insts issued each cycle
system.cpu0.iq.issued_per_cycle::mean        2.066316                       # Number of insts issued each cycle
system.cpu0.iq.issued_per_cycle::stdev       1.032210                       # Number of insts issued each cycle
system.cpu0.iq.issued_per_cycle::underflows            0      0.00%      0.00% # Number of insts issued each cycle
system.cpu0.iq.issued_per_cycle::0              12120     15.54%     15.54% # Number of insts issued each cycle
system.cpu0.iq.issued_per_cycle::1               2780      3.56%     19.10% # Number of insts issued each cycle
system.cpu0.iq.issued_per_cycle::2              30912     39.63%     58.73% # Number of insts issued each cycle
system.cpu0.iq.issued_per_cycle::3              32193     41.27%    100.00% # Number of insts issued each cycle
system.cpu0.iq.issued_per_cycle::overflows            0      0.00%    100.00% # Number of insts issued each cycle
system.cpu0.iq.issued_per_cycle::min_value            0                       # Number of insts issued each cycle
system.cpu0.iq.issued_per_cycle::max_value            3                       # Number of insts issued each cycle
system.cpu0.iq.issued_per_cycle::total          78005                       # Number of insts issued each cycle
system.cpu0.iq.fu_full::No_OpClass                  0                       # attempts to use FU when none available
system.cpu0.iq.fu_full::IntAlu                      0                       # attempts to use FU when none available
system.cpu0.iq.fu_full::IntMult                     0                       # attempts to use FU when none available
system.cpu0.iq.fu_full::IntDiv                      0                       # attempts to use FU when none available
system.cpu0.iq.fu_full::FloatAdd                    0                       # attempts to use FU when none available
system.cpu0.iq.fu_full::FloatCmp                    0                       # attempts to use FU when none available
system.cpu0.iq.fu_full::FloatCvt                    0                       # attempts to use FU when none available
system.cpu0.iq.fu_full::FloatMult                   0                       # attempts to use FU when none available
system.cpu0.iq.fu_full::FloatDiv                    0                       # attempts to use FU when none available
system.cpu0.iq.fu_full::FloatSqrt                   0                       # attempts to use FU when none available
system.cpu0.iq.fu_full::SimdAdd                     0                       # attempts to use FU when none available
system.cpu0.iq.fu_full::SimdAddAcc                  0                       # attempts to use FU when none available
system.cpu0.iq.fu_full::SimdAlu                     0                       # attempts to use FU when none available
system.cpu0.iq.fu_full::SimdCmp                     0                       # attempts to use FU when none available
system.cpu0.iq.fu_full::SimdCvt                     0                       # attempts to use FU when none available
system.cpu0.iq.fu_full::SimdMisc                    0                       # attempts to use FU when none available
system.cpu0.iq.fu_full::SimdMult                    0                       # attempts to use FU when none available
system.cpu0.iq.fu_full::SimdMultAcc                 0                       # attempts to use FU when none available
system.cpu0.iq.fu_full::SimdShift                   0                       # attempts to use FU when none available
system.cpu0.iq.fu_full::SimdShiftAcc                0                       # attempts to use FU when none available
system.cpu0.iq.fu_full::SimdSqrt                    0                       # attempts to use FU when none available
system.cpu0.iq.fu_full::SimdFloatAdd                0                       # attempts to use FU when none available
system.cpu0.iq.fu_full::SimdFloatAlu                0                       # attempts to use FU when none available
system.cpu0.iq.fu_full::SimdFloatCmp                0                       # attempts to use FU when none available
system.cpu0.iq.fu_full::SimdFloatCvt                0                       # attempts to use FU when none available
system.cpu0.iq.fu_full::SimdFloatDiv                0                       # attempts to use FU when none available
system.cpu0.iq.fu_full::SimdFloatMisc               0                       # attempts to use FU when none available
system.cpu0.iq.fu_full::SimdFloatMult               0                       # attempts to use FU when none available
system.cpu0.iq.fu_full::SimdFloatMultAcc            0                       # attempts to use FU when none available
system.cpu0.iq.fu_full::SimdFloatSqrt               0                       # attempts to use FU when none available
system.cpu0.iq.fu_full::MemRead                     0                       # attempts to use FU when none available
system.cpu0.iq.fu_full::MemWrite                    0                       # attempts to use FU when none available
system.cpu0.iq.fu_full::IprAccess                   0                       # attempts to use FU when none available
system.cpu0.iq.fu_full::InstPrefetch                0                       # attempts to use FU when none available
system.cpu0.iq.FU_type_0::No_OpClass                0      0.00%      0.00% # Type of FU issued
system.cpu0.iq.FU_type_0::IntAlu                67626     41.96%     41.96% # Type of FU issued
system.cpu0.iq.FU_type_0::IntMult                   6      0.00%     41.96% # Type of FU issued
system.cpu0.iq.FU_type_0::IntDiv                    0      0.00%     41.96% # Type of FU issued
system.cpu0.iq.FU_type_0::FloatAdd                  0      0.00%     41.96% # Type of FU issued
system.cpu0.iq.FU_type_0::FloatCmp                  0      0.00%     41.96% # Type of FU issued
system.cpu0.iq.FU_type_0::FloatCvt                  0      0.00%     41.96% # Type of FU issued
system.cpu0.iq.FU_type_0::FloatMult                 0      0.00%     41.96% # Type of FU issued
system.cpu0.iq.FU_type_0::FloatDiv                  0      0.00%     41.96% # Type of FU issued
system.cpu0.iq.FU_type_0::FloatSqrt                 0      0.00%     41.96% # Type of FU issued
system.cpu0.iq.FU_type_0::SimdAdd                   0      0.00%     41.96% # Type of FU issued
system.cpu0.iq.FU_type_0::SimdAddAcc                0      0.00%     41.96% # Type of FU issued
system.cpu0.iq.FU_type_0::SimdAlu                   0      0.00%     41.96% # Type of FU issued
system.cpu0.iq.FU_type_0::SimdCmp                   0      0.00%     41.96% # Type of FU issued
system.cpu0.iq.FU_type_0::SimdCvt                   0      0.00%     41.96% # Type of FU issued
system.cpu0.iq.FU_type_0::SimdMisc                  0      0.00%     41.96% # Type of FU issued
system.cpu0.iq.FU_type_0::SimdMult                  0      0.00%     41.96% # Type of FU issued
system.cpu0.iq.FU_type_0::SimdMultAcc               0      0.00%     41.96% # Type of FU issued
system.cpu0.iq.FU_type_0::SimdShift                 0      0.00%     41.96% # Type of FU issued
system.cpu0.iq.FU_type_0::SimdShiftAcc              0      0.00%     41.96% # Type of FU issued
system.cpu0.iq.FU_type_0::SimdSqrt                  0      0.00%     41.96% # Type of FU issued
system.cpu0.iq.FU_type_0::SimdFloatAdd              0      0.00%     41.96% # Type of FU issued
system.cpu0.iq.FU_type_0::SimdFloatAlu              0      0.00%     41.96% # Type of FU issued
system.cpu0.iq.FU_type_0::SimdFloatCmp              0      0.00%     41.96% # Type of FU issued
system.cpu0.iq.FU_type_0::SimdFloatCvt              0      0.00%     41.96% # Type of FU issued
system.cpu0.iq.FU_type_0::SimdFloatDiv              0      0.00%     41.96% # Type of FU issued
system.cpu0.iq.FU_type_0::SimdFloatMisc             3      0.00%     41.96% # Type of FU issued
system.cpu0.iq.FU_type_0::SimdFloatMult             0      0.00%     41.96% # Type of FU issued
system.cpu0.iq.FU_type_0::SimdFloatMultAcc            0      0.00%     41.96% # Type of FU issued
system.cpu0.iq.FU_type_0::SimdFloatSqrt             0      0.00%     41.96% # Type of FU issued
system.cpu0.iq.FU_type_0::MemRead               60746     37.69%     79.65% # Type of FU issued
system.cpu0.iq.FU_type_0::MemWrite              32802     20.35%    100.00% # Type of FU issued
system.cpu0.iq.FU_type_0::IprAccess                 0      0.00%    100.00% # Type of FU issued
system.cpu0.iq.FU_type_0::InstPrefetch              0      0.00%    100.00% # Type of FU issued
system.cpu0.iq.FU_type_0::total                161183                       # Type of FU issued
system.cpu0.iq.rate                          1.886417                       # Inst issue rate
system.cpu0.iq.fu_busy_cnt                          0                       # FU busy when requested
system.cpu0.iq.fu_busy_rate                         0                       # FU busy rate (busy events/executed inst)
system.cpu0.iq.int_inst_queue_reads            400474                       # Number of integer instruction queue reads
system.cpu0.iq.int_inst_queue_writes           167835                       # Number of integer instruction queue writes
system.cpu0.iq.int_inst_queue_wakeup_accesses       160142                       # Number of integer instruction queue wakeup accesses
system.cpu0.iq.fp_inst_queue_reads                 32                       # Number of floating instruction queue reads
system.cpu0.iq.fp_inst_queue_writes                16                       # Number of floating instruction queue writes
system.cpu0.iq.fp_inst_queue_wakeup_accesses           16                       # Number of floating instruction queue wakeup accesses
system.cpu0.iq.int_alu_accesses                161167                       # Number of integer alu accesses
system.cpu0.iq.fp_alu_accesses                     16                       # Number of floating point alu accesses
system.cpu0.iew.lsq.thread0.forwLoads           29252                       # Number of loads that had data forwarded from stores
system.cpu0.iew.lsq.thread0.invAddrLoads            0                       # Number of loads ignored due to an invalid address
system.cpu0.iew.lsq.thread0.squashedLoads         1171                       # Number of loads squashed
system.cpu0.iew.lsq.thread0.ignoredResponses            0                       # Number of memory responses ignored because the instruction is squashed
system.cpu0.iew.lsq.thread0.memOrderViolation           11                       # Number of memory ordering violations
system.cpu0.iew.lsq.thread0.squashedStores          463                       # Number of stores squashed
system.cpu0.iew.lsq.thread0.invAddrSwpfs            0                       # Number of software prefetches ignored due to an invalid address
system.cpu0.iew.lsq.thread0.blockedLoads            0                       # Number of blocked loads due to partial load-store forwarding
system.cpu0.iew.lsq.thread0.rescheduledLoads            4                       # Number of loads that were rescheduled
system.cpu0.iew.lsq.thread0.cacheBlocked            0                       # Number of times an access to memory failed due to the cache being blocked
system.cpu0.iew.iewIdleCycles                       0                       # Number of cycles IEW is idle
system.cpu0.iew.iewSquashCycles                   540                       # Number of cycles IEW is squashing
system.cpu0.iew.iewBlockCycles                    378                       # Number of cycles IEW is blocking
system.cpu0.iew.iewUnblockCycles                  110                       # Number of cycles IEW is unblocking
system.cpu0.iew.iewDispatchedInsts             163025                       # Number of instructions dispatched to IQ
system.cpu0.iew.iewDispSquashedInsts              366                       # Number of squashed instructions skipped by dispatch
system.cpu0.iew.iewDispLoadInsts                61010                       # Number of dispatched load instructions
system.cpu0.iew.iewDispStoreInsts               33045                       # Number of dispatched store instructions
system.cpu0.iew.iewDispNonSpecInsts                39                       # Number of dispatched non-speculative instructions
system.cpu0.iew.iewIQFullEvents                     2                       # Number of times the IQ has become full, causing a stall
system.cpu0.iew.iewLSQFullEvents                    0                       # Number of times the LSQ has become full, causing a stall
system.cpu0.iew.memOrderViolationEvents            11                       # Number of memory order violations
system.cpu0.iew.predictedTakenIncorrect            72                       # Number of branches that were predicted taken incorrectly
system.cpu0.iew.predictedNotTakenIncorrect          468                       # Number of branches that were predicted not taken incorrectly
system.cpu0.iew.branchMispredicts                 540                       # Number of branch mispredicts detected at execute
system.cpu0.iew.iewExecutedInsts               160569                       # Number of executed instructions
system.cpu0.iew.iewExecLoadInsts                60561                       # Number of load instructions executed
system.cpu0.iew.iewExecSquashedInsts              611                       # Number of squashed instructions skipped in execute
system.cpu0.iew.exec_swp                            0                       # number of swp insts executed
system.cpu0.iew.exec_nop                           18                       # number of nop insts executed
system.cpu0.iew.exec_refs                       93298                       # number of memory reference insts executed
system.cpu0.iew.exec_branches                   31129                       # Number of branches executed
system.cpu0.iew.exec_stores                     32737                       # Number of stores executed
system.cpu0.iew.exec_rate                    1.879231                       # Inst execution rate
system.cpu0.iew.wb_sent                        160260                       # cumulative count of insts sent to commit
system.cpu0.iew.wb_count                       160158                       # cumulative count of insts written-back
system.cpu0.iew.wb_producers                    93937                       # num instructions producing a value
system.cpu0.iew.wb_consumers                   104181                       # num instructions consuming a value
system.cpu0.iew.wb_penalized                        0                       # number of instrctions required to write to 'other' IQ
system.cpu0.iew.wb_rate                      1.874421                       # insts written-back per cycle
system.cpu0.iew.wb_fanout                    0.901671                       # average fanout of values written-back
system.cpu0.iew.wb_penalized_rate                   0                       # fraction of instructions written-back that wrote to 'other' IQ
system.cpu0.commit.commitSquashedInsts           4851                       # The number of squashed insts skipped by commit
system.cpu0.commit.commitNonSpecStalls             60                       # The number of times commit has been forced to stall to communicate backwards
system.cpu0.commit.branchMispredicts              517                       # The number of times a branch was mispredicted
system.cpu0.commit.committed_per_cycle::samples        77106                       # Number of insts commited each cycle
system.cpu0.commit.committed_per_cycle::mean     2.051124                       # Number of insts commited each cycle
system.cpu0.commit.committed_per_cycle::stdev     1.644402                       # Number of insts commited each cycle
system.cpu0.commit.committed_per_cycle::underflows            0      0.00%      0.00% # Number of insts commited each cycle
system.cpu0.commit.committed_per_cycle::0        13062     16.94%     16.94% # Number of insts commited each cycle
system.cpu0.commit.committed_per_cycle::1        31585     40.96%     57.90% # Number of insts commited each cycle
system.cpu0.commit.committed_per_cycle::2         1113      1.44%     59.35% # Number of insts commited each cycle
system.cpu0.commit.committed_per_cycle::3         1690      2.19%     61.54% # Number of insts commited each cycle
system.cpu0.commit.committed_per_cycle::4        29380     38.10%     99.64% # Number of insts commited each cycle
system.cpu0.commit.committed_per_cycle::5           97      0.13%     99.77% # Number of insts commited each cycle
system.cpu0.commit.committed_per_cycle::6           71      0.09%     99.86% # Number of insts commited each cycle
system.cpu0.commit.committed_per_cycle::7           22      0.03%     99.89% # Number of insts commited each cycle
system.cpu0.commit.committed_per_cycle::8           86      0.11%    100.00% # Number of insts commited each cycle
system.cpu0.commit.committed_per_cycle::overflows            0      0.00%    100.00% # Number of insts commited each cycle
system.cpu0.commit.committed_per_cycle::min_value            0                       # Number of insts commited each cycle
system.cpu0.commit.committed_per_cycle::max_value            8                       # Number of insts commited each cycle
system.cpu0.commit.committed_per_cycle::total        77106                       # Number of insts commited each cycle
system.cpu0.commit.committedInsts              154916                       # Number of instructions committed
system.cpu0.commit.committedOps                158154                       # Number of ops (including micro ops) committed
system.cpu0.commit.swp_count                        0                       # Number of s/w prefetches committed
system.cpu0.commit.refs                         92409                       # Number of memory references committed
system.cpu0.commit.loads                        59831                       # Number of loads committed
system.cpu0.commit.membars                         24                       # Number of memory barriers committed
system.cpu0.commit.branches                     30784                       # Number of branches committed
system.cpu0.commit.fp_insts                        16                       # Number of committed floating point instructions.
system.cpu0.commit.int_insts                   127717                       # Number of committed integer instructions.
system.cpu0.commit.function_calls                 134                       # Number of function calls committed.
system.cpu0.commit.op_class_0::No_OpClass            0      0.00%      0.00% # Class of committed instruction
system.cpu0.commit.op_class_0::IntAlu           65736     41.56%     41.56% # Class of committed instruction
system.cpu0.commit.op_class_0::IntMult              6      0.00%     41.57% # Class of committed instruction
system.cpu0.commit.op_class_0::IntDiv               0      0.00%     41.57% # Class of committed instruction
system.cpu0.commit.op_class_0::FloatAdd             0      0.00%     41.57% # Class of committed instruction
system.cpu0.commit.op_class_0::FloatCmp             0      0.00%     41.57% # Class of committed instruction
system.cpu0.commit.op_class_0::FloatCvt             0      0.00%     41.57% # Class of committed instruction
system.cpu0.commit.op_class_0::FloatMult            0      0.00%     41.57% # Class of committed instruction
system.cpu0.commit.op_class_0::FloatDiv             0      0.00%     41.57% # Class of committed instruction
system.cpu0.commit.op_class_0::FloatSqrt            0      0.00%     41.57% # Class of committed instruction
system.cpu0.commit.op_class_0::SimdAdd              0      0.00%     41.57% # Class of committed instruction
system.cpu0.commit.op_class_0::SimdAddAcc            0      0.00%     41.57% # Class of committed instruction
system.cpu0.commit.op_class_0::SimdAlu              0      0.00%     41.57% # Class of committed instruction
system.cpu0.commit.op_class_0::SimdCmp              0      0.00%     41.57% # Class of committed instruction
system.cpu0.commit.op_class_0::SimdCvt              0      0.00%     41.57% # Class of committed instruction
system.cpu0.commit.op_class_0::SimdMisc             0      0.00%     41.57% # Class of committed instruction
system.cpu0.commit.op_class_0::SimdMult             0      0.00%     41.57% # Class of committed instruction
system.cpu0.commit.op_class_0::SimdMultAcc            0      0.00%     41.57% # Class of committed instruction
system.cpu0.commit.op_class_0::SimdShift            0      0.00%     41.57% # Class of committed instruction
system.cpu0.commit.op_class_0::SimdShiftAcc            0      0.00%     41.57% # Class of committed instruction
system.cpu0.commit.op_class_0::SimdSqrt             0      0.00%     41.57% # Class of committed instruction
system.cpu0.commit.op_class_0::SimdFloatAdd            0      0.00%     41.57% # Class of committed instruction
system.cpu0.commit.op_class_0::SimdFloatAlu            0      0.00%     41.57% # Class of committed instruction
system.cpu0.commit.op_class_0::SimdFloatCmp            0      0.00%     41.57% # Class of committed instruction
system.cpu0.commit.op_class_0::SimdFloatCvt            0      0.00%     41.57% # Class of committed instruction
system.cpu0.commit.op_class_0::SimdFloatDiv            0      0.00%     41.57% # Class of committed instruction
system.cpu0.commit.op_class_0::SimdFloatMisc            3      0.00%     41.57% # Class of committed instruction
system.cpu0.commit.op_class_0::SimdFloatMult            0      0.00%     41.57% # Class of committed instruction
system.cpu0.commit.op_class_0::SimdFloatMultAcc            0      0.00%     41.57% # Class of committed instruction
system.cpu0.commit.op_class_0::SimdFloatSqrt            0      0.00%     41.57% # Class of committed instruction
system.cpu0.commit.op_class_0::MemRead          59831     37.83%     79.40% # Class of committed instruction
system.cpu0.commit.op_class_0::MemWrite         32578     20.60%    100.00% # Class of committed instruction
system.cpu0.commit.op_class_0::IprAccess            0      0.00%    100.00% # Class of committed instruction
system.cpu0.commit.op_class_0::InstPrefetch            0      0.00%    100.00% # Class of committed instruction
system.cpu0.commit.op_class_0::total           158154                       # Class of committed instruction
system.cpu0.commit.bw_lim_events                   86                       # number cycles where commit BW limit reached
system.cpu0.rob.rob_reads                      239868                       # The number of ROB reads
system.cpu0.rob.rob_writes                     326933                       # The number of ROB writes
system.cpu0.timesIdled                            219                       # Number of times that the entire CPU went into an idle state and unscheduled itself
system.cpu0.idleCycles                           7439                       # Total number of cycles that the CPU has spent unscheduled due to idling
system.cpu0.committedInsts                     154916                       # Number of Instructions Simulated
system.cpu0.committedOps                       158154                       # Number of Ops (including micro ops) Simulated
system.cpu0.cpi                              0.551551                       # CPI: Cycles Per Instruction
system.cpu0.cpi_total                        0.551551                       # CPI: Total CPI of All Threads
system.cpu0.ipc                              1.813071                       # IPC: Instructions Per Cycle
system.cpu0.ipc_total                        1.813071                       # IPC: Total IPC of All Threads
system.cpu0.int_regfile_reads                  163187                       # number of integer regfile reads
system.cpu0.int_regfile_writes                  66400                       # number of integer regfile writes
system.cpu0.fp_regfile_reads                      336                       # number of floating regfile reads
system.cpu0.cc_regfile_reads                   662077                       # number of cc regfile reads
system.cpu0.cc_regfile_writes                   94934                       # number of cc regfile writes
system.cpu0.misc_regfile_reads                  93932                       # number of misc regfile reads
system.cpu0.misc_regfile_writes                    48                       # number of misc regfile writes
system.cpu0.dcache.tags.replacements               26                       # number of replacements
system.cpu0.dcache.tags.tagsinuse          218.388768                       # Cycle average of tags in use
system.cpu0.dcache.tags.total_refs              61032                       # Total number of references to valid blocks.
system.cpu0.dcache.tags.sampled_refs              273                       # Sample count of references to valid blocks.
system.cpu0.dcache.tags.avg_refs           223.560440                       # Average number of references to valid blocks.
system.cpu0.dcache.tags.warmup_cycle                0                       # Cycle when the warmup percentage was hit.
system.cpu0.dcache.tags.occ_blocks::cpu0.data   218.388768                       # Average occupied blocks per requestor
system.cpu0.dcache.tags.occ_percent::cpu0.data     0.426541                       # Average percentage of cache occupancy
system.cpu0.dcache.tags.occ_percent::total     0.426541                       # Average percentage of cache occupancy
system.cpu0.dcache.tags.occ_task_id_blocks::1024          247                       # Occupied blocks per task id
system.cpu0.dcache.tags.age_task_id_blocks_1024::1          247                       # Occupied blocks per task id
system.cpu0.dcache.tags.occ_task_id_percent::1024     0.482422                       # Percentage of cache occupancy per task id
system.cpu0.dcache.tags.tag_accesses           127628                       # Number of tag accesses
system.cpu0.dcache.tags.data_accesses          127628                       # Number of data accesses
system.cpu0.dcache.ReadReq_hits::cpu0.data        30951                       # number of ReadReq hits
system.cpu0.dcache.ReadReq_hits::total          30951                       # number of ReadReq hits
system.cpu0.dcache.WriteReq_hits::cpu0.data        30158                       # number of WriteReq hits
system.cpu0.dcache.WriteReq_hits::total         30158                       # number of WriteReq hits
system.cpu0.dcache.LoadLockedReq_hits::cpu0.data           20                       # number of LoadLockedReq hits
system.cpu0.dcache.LoadLockedReq_hits::total           20                       # number of LoadLockedReq hits
system.cpu0.dcache.StoreCondReq_hits::cpu0.data           23                       # number of StoreCondReq hits
system.cpu0.dcache.StoreCondReq_hits::total           23                       # number of StoreCondReq hits
system.cpu0.dcache.demand_hits::cpu0.data        61109                       # number of demand (read+write) hits
system.cpu0.dcache.demand_hits::total           61109                       # number of demand (read+write) hits
system.cpu0.dcache.overall_hits::cpu0.data        61109                       # number of overall hits
system.cpu0.dcache.overall_hits::total          61109                       # number of overall hits
system.cpu0.dcache.ReadReq_misses::cpu0.data          161                       # number of ReadReq misses
system.cpu0.dcache.ReadReq_misses::total          161                       # number of ReadReq misses
system.cpu0.dcache.WriteReq_misses::cpu0.data         2353                       # number of WriteReq misses
system.cpu0.dcache.WriteReq_misses::total         2353                       # number of WriteReq misses
system.cpu0.dcache.LoadLockedReq_misses::cpu0.data            3                       # number of LoadLockedReq misses
system.cpu0.dcache.LoadLockedReq_misses::total            3                       # number of LoadLockedReq misses
system.cpu0.dcache.demand_misses::cpu0.data         2514                       # number of demand (read+write) misses
system.cpu0.dcache.demand_misses::total          2514                       # number of demand (read+write) misses
system.cpu0.dcache.overall_misses::cpu0.data         2514                       # number of overall misses
system.cpu0.dcache.overall_misses::total         2514                       # number of overall misses
system.cpu0.dcache.ReadReq_miss_latency::cpu0.data      7837490                       # number of ReadReq miss cycles
system.cpu0.dcache.ReadReq_miss_latency::total      7837490                       # number of ReadReq miss cycles
system.cpu0.dcache.WriteReq_miss_latency::cpu0.data    115253500                       # number of WriteReq miss cycles
system.cpu0.dcache.WriteReq_miss_latency::total    115253500                       # number of WriteReq miss cycles
system.cpu0.dcache.LoadLockedReq_miss_latency::cpu0.data       133500                       # number of LoadLockedReq miss cycles
system.cpu0.dcache.LoadLockedReq_miss_latency::total       133500                       # number of LoadLockedReq miss cycles
system.cpu0.dcache.demand_miss_latency::cpu0.data    123090990                       # number of demand (read+write) miss cycles
system.cpu0.dcache.demand_miss_latency::total    123090990                       # number of demand (read+write) miss cycles
system.cpu0.dcache.overall_miss_latency::cpu0.data    123090990                       # number of overall miss cycles
system.cpu0.dcache.overall_miss_latency::total    123090990                       # number of overall miss cycles
system.cpu0.dcache.ReadReq_accesses::cpu0.data        31112                       # number of ReadReq accesses(hits+misses)
system.cpu0.dcache.ReadReq_accesses::total        31112                       # number of ReadReq accesses(hits+misses)
system.cpu0.dcache.WriteReq_accesses::cpu0.data        32511                       # number of WriteReq accesses(hits+misses)
system.cpu0.dcache.WriteReq_accesses::total        32511                       # number of WriteReq accesses(hits+misses)
system.cpu0.dcache.LoadLockedReq_accesses::cpu0.data           23                       # number of LoadLockedReq accesses(hits+misses)
system.cpu0.dcache.LoadLockedReq_accesses::total           23                       # number of LoadLockedReq accesses(hits+misses)
system.cpu0.dcache.StoreCondReq_accesses::cpu0.data           23                       # number of StoreCondReq accesses(hits+misses)
system.cpu0.dcache.StoreCondReq_accesses::total           23                       # number of StoreCondReq accesses(hits+misses)
system.cpu0.dcache.demand_accesses::cpu0.data        63623                       # number of demand (read+write) accesses
system.cpu0.dcache.demand_accesses::total        63623                       # number of demand (read+write) accesses
system.cpu0.dcache.overall_accesses::cpu0.data        63623                       # number of overall (read+write) accesses
system.cpu0.dcache.overall_accesses::total        63623                       # number of overall (read+write) accesses
system.cpu0.dcache.ReadReq_miss_rate::cpu0.data     0.005175                       # miss rate for ReadReq accesses
system.cpu0.dcache.ReadReq_miss_rate::total     0.005175                       # miss rate for ReadReq accesses
system.cpu0.dcache.WriteReq_miss_rate::cpu0.data     0.072376                       # miss rate for WriteReq accesses
system.cpu0.dcache.WriteReq_miss_rate::total     0.072376                       # miss rate for WriteReq accesses
system.cpu0.dcache.LoadLockedReq_miss_rate::cpu0.data     0.130435                       # miss rate for LoadLockedReq accesses
system.cpu0.dcache.LoadLockedReq_miss_rate::total     0.130435                       # miss rate for LoadLockedReq accesses
system.cpu0.dcache.demand_miss_rate::cpu0.data     0.039514                       # miss rate for demand accesses
system.cpu0.dcache.demand_miss_rate::total     0.039514                       # miss rate for demand accesses
system.cpu0.dcache.overall_miss_rate::cpu0.data     0.039514                       # miss rate for overall accesses
system.cpu0.dcache.overall_miss_rate::total     0.039514                       # miss rate for overall accesses
system.cpu0.dcache.ReadReq_avg_miss_latency::cpu0.data 48680.062112                       # average ReadReq miss latency
system.cpu0.dcache.ReadReq_avg_miss_latency::total 48680.062112                       # average ReadReq miss latency
system.cpu0.dcache.WriteReq_avg_miss_latency::cpu0.data 48981.512962                       # average WriteReq miss latency
system.cpu0.dcache.WriteReq_avg_miss_latency::total 48981.512962                       # average WriteReq miss latency
system.cpu0.dcache.LoadLockedReq_avg_miss_latency::cpu0.data        44500                       # average LoadLockedReq miss latency
system.cpu0.dcache.LoadLockedReq_avg_miss_latency::total        44500                       # average LoadLockedReq miss latency
system.cpu0.dcache.demand_avg_miss_latency::cpu0.data 48962.207637                       # average overall miss latency
system.cpu0.dcache.demand_avg_miss_latency::total 48962.207637                       # average overall miss latency
system.cpu0.dcache.overall_avg_miss_latency::cpu0.data 48962.207637                       # average overall miss latency
system.cpu0.dcache.overall_avg_miss_latency::total 48962.207637                       # average overall miss latency
system.cpu0.dcache.blocked_cycles::no_mshrs            0                       # number of cycles access was blocked
system.cpu0.dcache.blocked_cycles::no_targets            0                       # number of cycles access was blocked
system.cpu0.dcache.blocked::no_mshrs                0                       # number of cycles access was blocked
system.cpu0.dcache.blocked::no_targets              0                       # number of cycles access was blocked
system.cpu0.dcache.avg_blocked_cycles::no_mshrs          nan                       # average number of cycles each access was blocked
system.cpu0.dcache.avg_blocked_cycles::no_targets          nan                       # average number of cycles each access was blocked
system.cpu0.dcache.fast_writes                      0                       # number of fast writes performed
system.cpu0.dcache.cache_copies                     0                       # number of cache copies performed
system.cpu0.dcache.writebacks::writebacks           10                       # number of writebacks
system.cpu0.dcache.writebacks::total               10                       # number of writebacks
system.cpu0.dcache.ReadReq_mshr_hits::cpu0.data           51                       # number of ReadReq MSHR hits
system.cpu0.dcache.ReadReq_mshr_hits::total           51                       # number of ReadReq MSHR hits
system.cpu0.dcache.WriteReq_mshr_hits::cpu0.data         2173                       # number of WriteReq MSHR hits
system.cpu0.dcache.WriteReq_mshr_hits::total         2173                       # number of WriteReq MSHR hits
system.cpu0.dcache.LoadLockedReq_mshr_hits::cpu0.data            3                       # number of LoadLockedReq MSHR hits
system.cpu0.dcache.LoadLockedReq_mshr_hits::total            3                       # number of LoadLockedReq MSHR hits
system.cpu0.dcache.demand_mshr_hits::cpu0.data         2224                       # number of demand (read+write) MSHR hits
system.cpu0.dcache.demand_mshr_hits::total         2224                       # number of demand (read+write) MSHR hits
system.cpu0.dcache.overall_mshr_hits::cpu0.data         2224                       # number of overall MSHR hits
system.cpu0.dcache.overall_mshr_hits::total         2224                       # number of overall MSHR hits
system.cpu0.dcache.ReadReq_mshr_misses::cpu0.data          110                       # number of ReadReq MSHR misses
system.cpu0.dcache.ReadReq_mshr_misses::total          110                       # number of ReadReq MSHR misses
system.cpu0.dcache.WriteReq_mshr_misses::cpu0.data          180                       # number of WriteReq MSHR misses
system.cpu0.dcache.WriteReq_mshr_misses::total          180                       # number of WriteReq MSHR misses
system.cpu0.dcache.demand_mshr_misses::cpu0.data          290                       # number of demand (read+write) MSHR misses
system.cpu0.dcache.demand_mshr_misses::total          290                       # number of demand (read+write) MSHR misses
system.cpu0.dcache.overall_mshr_misses::cpu0.data          290                       # number of overall MSHR misses
system.cpu0.dcache.overall_mshr_misses::total          290                       # number of overall MSHR misses
system.cpu0.dcache.ReadReq_mshr_miss_latency::cpu0.data      5290006                       # number of ReadReq MSHR miss cycles
system.cpu0.dcache.ReadReq_mshr_miss_latency::total      5290006                       # number of ReadReq MSHR miss cycles
system.cpu0.dcache.WriteReq_mshr_miss_latency::cpu0.data      9945000                       # number of WriteReq MSHR miss cycles
system.cpu0.dcache.WriteReq_mshr_miss_latency::total      9945000                       # number of WriteReq MSHR miss cycles
system.cpu0.dcache.demand_mshr_miss_latency::cpu0.data     15235006                       # number of demand (read+write) MSHR miss cycles
system.cpu0.dcache.demand_mshr_miss_latency::total     15235006                       # number of demand (read+write) MSHR miss cycles
system.cpu0.dcache.overall_mshr_miss_latency::cpu0.data     15235006                       # number of overall MSHR miss cycles
system.cpu0.dcache.overall_mshr_miss_latency::total     15235006                       # number of overall MSHR miss cycles
system.cpu0.dcache.ReadReq_mshr_miss_rate::cpu0.data     0.003536                       # mshr miss rate for ReadReq accesses
system.cpu0.dcache.ReadReq_mshr_miss_rate::total     0.003536                       # mshr miss rate for ReadReq accesses
system.cpu0.dcache.WriteReq_mshr_miss_rate::cpu0.data     0.005537                       # mshr miss rate for WriteReq accesses
system.cpu0.dcache.WriteReq_mshr_miss_rate::total     0.005537                       # mshr miss rate for WriteReq accesses
system.cpu0.dcache.demand_mshr_miss_rate::cpu0.data     0.004558                       # mshr miss rate for demand accesses
system.cpu0.dcache.demand_mshr_miss_rate::total     0.004558                       # mshr miss rate for demand accesses
system.cpu0.dcache.overall_mshr_miss_rate::cpu0.data     0.004558                       # mshr miss rate for overall accesses
system.cpu0.dcache.overall_mshr_miss_rate::total     0.004558                       # mshr miss rate for overall accesses
system.cpu0.dcache.ReadReq_avg_mshr_miss_latency::cpu0.data 48090.963636                       # average ReadReq mshr miss latency
system.cpu0.dcache.ReadReq_avg_mshr_miss_latency::total 48090.963636                       # average ReadReq mshr miss latency
system.cpu0.dcache.WriteReq_avg_mshr_miss_latency::cpu0.data        55250                       # average WriteReq mshr miss latency
system.cpu0.dcache.WriteReq_avg_mshr_miss_latency::total        55250                       # average WriteReq mshr miss latency
system.cpu0.dcache.demand_avg_mshr_miss_latency::cpu0.data 52534.503448                       # average overall mshr miss latency
system.cpu0.dcache.demand_avg_mshr_miss_latency::total 52534.503448                       # average overall mshr miss latency
system.cpu0.dcache.overall_avg_mshr_miss_latency::cpu0.data 52534.503448                       # average overall mshr miss latency
system.cpu0.dcache.overall_avg_mshr_miss_latency::total 52534.503448                       # average overall mshr miss latency
system.cpu0.dcache.no_allocate_misses               0                       # Number of misses that were no-allocate
system.cpu0.icache.tags.replacements               53                       # number of replacements
system.cpu0.icache.tags.tagsinuse          251.730663                       # Cycle average of tags in use
system.cpu0.icache.tags.total_refs               1707                       # Total number of references to valid blocks.
system.cpu0.icache.tags.sampled_refs              344                       # Sample count of references to valid blocks.
system.cpu0.icache.tags.avg_refs             4.962209                       # Average number of references to valid blocks.
system.cpu0.icache.tags.warmup_cycle                0                       # Cycle when the warmup percentage was hit.
system.cpu0.icache.tags.occ_blocks::cpu0.inst   251.730663                       # Average occupied blocks per requestor
system.cpu0.icache.tags.occ_percent::cpu0.inst     0.491661                       # Average percentage of cache occupancy
system.cpu0.icache.tags.occ_percent::total     0.491661                       # Average percentage of cache occupancy
system.cpu0.icache.tags.occ_task_id_blocks::1024          291                       # Occupied blocks per task id
system.cpu0.icache.tags.age_task_id_blocks_1024::1          291                       # Occupied blocks per task id
system.cpu0.icache.tags.occ_task_id_percent::1024     0.568359                       # Percentage of cache occupancy per task id
system.cpu0.icache.tags.tag_accesses             4568                       # Number of tag accesses
system.cpu0.icache.tags.data_accesses            4568                       # Number of data accesses
system.cpu0.icache.ReadReq_hits::cpu0.inst         1707                       # number of ReadReq hits
system.cpu0.icache.ReadReq_hits::total           1707                       # number of ReadReq hits
system.cpu0.icache.demand_hits::cpu0.inst         1707                       # number of demand (read+write) hits
system.cpu0.icache.demand_hits::total            1707                       # number of demand (read+write) hits
system.cpu0.icache.overall_hits::cpu0.inst         1707                       # number of overall hits
system.cpu0.icache.overall_hits::total           1707                       # number of overall hits
system.cpu0.icache.ReadReq_misses::cpu0.inst          405                       # number of ReadReq misses
system.cpu0.icache.ReadReq_misses::total          405                       # number of ReadReq misses
system.cpu0.icache.demand_misses::cpu0.inst          405                       # number of demand (read+write) misses
system.cpu0.icache.demand_misses::total           405                       # number of demand (read+write) misses
system.cpu0.icache.overall_misses::cpu0.inst          405                       # number of overall misses
system.cpu0.icache.overall_misses::total          405                       # number of overall misses
system.cpu0.icache.ReadReq_miss_latency::cpu0.inst     21217498                       # number of ReadReq miss cycles
system.cpu0.icache.ReadReq_miss_latency::total     21217498                       # number of ReadReq miss cycles
system.cpu0.icache.demand_miss_latency::cpu0.inst     21217498                       # number of demand (read+write) miss cycles
system.cpu0.icache.demand_miss_latency::total     21217498                       # number of demand (read+write) miss cycles
system.cpu0.icache.overall_miss_latency::cpu0.inst     21217498                       # number of overall miss cycles
system.cpu0.icache.overall_miss_latency::total     21217498                       # number of overall miss cycles
system.cpu0.icache.ReadReq_accesses::cpu0.inst         2112                       # number of ReadReq accesses(hits+misses)
system.cpu0.icache.ReadReq_accesses::total         2112                       # number of ReadReq accesses(hits+misses)
system.cpu0.icache.demand_accesses::cpu0.inst         2112                       # number of demand (read+write) accesses
system.cpu0.icache.demand_accesses::total         2112                       # number of demand (read+write) accesses
system.cpu0.icache.overall_accesses::cpu0.inst         2112                       # number of overall (read+write) accesses
system.cpu0.icache.overall_accesses::total         2112                       # number of overall (read+write) accesses
system.cpu0.icache.ReadReq_miss_rate::cpu0.inst     0.191761                       # miss rate for ReadReq accesses
system.cpu0.icache.ReadReq_miss_rate::total     0.191761                       # miss rate for ReadReq accesses
system.cpu0.icache.demand_miss_rate::cpu0.inst     0.191761                       # miss rate for demand accesses
system.cpu0.icache.demand_miss_rate::total     0.191761                       # miss rate for demand accesses
system.cpu0.icache.overall_miss_rate::cpu0.inst     0.191761                       # miss rate for overall accesses
system.cpu0.icache.overall_miss_rate::total     0.191761                       # miss rate for overall accesses
system.cpu0.icache.ReadReq_avg_miss_latency::cpu0.inst 52388.883951                       # average ReadReq miss latency
system.cpu0.icache.ReadReq_avg_miss_latency::total 52388.883951                       # average ReadReq miss latency
system.cpu0.icache.demand_avg_miss_latency::cpu0.inst 52388.883951                       # average overall miss latency
system.cpu0.icache.demand_avg_miss_latency::total 52388.883951                       # average overall miss latency
system.cpu0.icache.overall_avg_miss_latency::cpu0.inst 52388.883951                       # average overall miss latency
system.cpu0.icache.overall_avg_miss_latency::total 52388.883951                       # average overall miss latency
system.cpu0.icache.blocked_cycles::no_mshrs           11                       # number of cycles access was blocked
system.cpu0.icache.blocked_cycles::no_targets            0                       # number of cycles access was blocked
system.cpu0.icache.blocked::no_mshrs                1                       # number of cycles access was blocked
system.cpu0.icache.blocked::no_targets              0                       # number of cycles access was blocked
system.cpu0.icache.avg_blocked_cycles::no_mshrs           11                       # average number of cycles each access was blocked
system.cpu0.icache.avg_blocked_cycles::no_targets          nan                       # average number of cycles each access was blocked
system.cpu0.icache.fast_writes                      0                       # number of fast writes performed
system.cpu0.icache.cache_copies                     0                       # number of cache copies performed
system.cpu0.icache.ReadReq_mshr_hits::cpu0.inst           61                       # number of ReadReq MSHR hits
system.cpu0.icache.ReadReq_mshr_hits::total           61                       # number of ReadReq MSHR hits
system.cpu0.icache.demand_mshr_hits::cpu0.inst           61                       # number of demand (read+write) MSHR hits
system.cpu0.icache.demand_mshr_hits::total           61                       # number of demand (read+write) MSHR hits
system.cpu0.icache.overall_mshr_hits::cpu0.inst           61                       # number of overall MSHR hits
system.cpu0.icache.overall_mshr_hits::total           61                       # number of overall MSHR hits
system.cpu0.icache.ReadReq_mshr_misses::cpu0.inst          344                       # number of ReadReq MSHR misses
system.cpu0.icache.ReadReq_mshr_misses::total          344                       # number of ReadReq MSHR misses
system.cpu0.icache.demand_mshr_misses::cpu0.inst          344                       # number of demand (read+write) MSHR misses
system.cpu0.icache.demand_mshr_misses::total          344                       # number of demand (read+write) MSHR misses
system.cpu0.icache.overall_mshr_misses::cpu0.inst          344                       # number of overall MSHR misses
system.cpu0.icache.overall_mshr_misses::total          344                       # number of overall MSHR misses
system.cpu0.icache.ReadReq_mshr_miss_latency::cpu0.inst     18213502                       # number of ReadReq MSHR miss cycles
system.cpu0.icache.ReadReq_mshr_miss_latency::total     18213502                       # number of ReadReq MSHR miss cycles
system.cpu0.icache.demand_mshr_miss_latency::cpu0.inst     18213502                       # number of demand (read+write) MSHR miss cycles
system.cpu0.icache.demand_mshr_miss_latency::total     18213502                       # number of demand (read+write) MSHR miss cycles
system.cpu0.icache.overall_mshr_miss_latency::cpu0.inst     18213502                       # number of overall MSHR miss cycles
system.cpu0.icache.overall_mshr_miss_latency::total     18213502                       # number of overall MSHR miss cycles
system.cpu0.icache.ReadReq_mshr_miss_rate::cpu0.inst     0.162879                       # mshr miss rate for ReadReq accesses
system.cpu0.icache.ReadReq_mshr_miss_rate::total     0.162879                       # mshr miss rate for ReadReq accesses
system.cpu0.icache.demand_mshr_miss_rate::cpu0.inst     0.162879                       # mshr miss rate for demand accesses
system.cpu0.icache.demand_mshr_miss_rate::total     0.162879                       # mshr miss rate for demand accesses
system.cpu0.icache.overall_mshr_miss_rate::cpu0.inst     0.162879                       # mshr miss rate for overall accesses
system.cpu0.icache.overall_mshr_miss_rate::total     0.162879                       # mshr miss rate for overall accesses
system.cpu0.icache.ReadReq_avg_mshr_miss_latency::cpu0.inst 52946.226744                       # average ReadReq mshr miss latency
system.cpu0.icache.ReadReq_avg_mshr_miss_latency::total 52946.226744                       # average ReadReq mshr miss latency
system.cpu0.icache.demand_avg_mshr_miss_latency::cpu0.inst 52946.226744                       # average overall mshr miss latency
system.cpu0.icache.demand_avg_mshr_miss_latency::total 52946.226744                       # average overall mshr miss latency
system.cpu0.icache.overall_avg_mshr_miss_latency::cpu0.inst 52946.226744                       # average overall mshr miss latency
system.cpu0.icache.overall_avg_mshr_miss_latency::total 52946.226744                       # average overall mshr miss latency
system.cpu0.icache.no_allocate_misses               0                       # Number of misses that were no-allocate
system.cpu1.branchPred.lookups                  16526                       # Number of BP lookups
system.cpu1.branchPred.condPredicted            10273                       # Number of conditional branches predicted
system.cpu1.branchPred.condIncorrect             1757                       # Number of conditional branches incorrect
system.cpu1.branchPred.BTBLookups                5896                       # Number of BTB lookups
system.cpu1.branchPred.BTBHits                   4958                       # Number of BTB hits
[...]
system.l2.ReadReq_mshr_miss_latency::total     26464000                       # number of ReadReq MSHR miss cycles
system.l2.UpgradeReq_mshr_miss_latency::cpu1.data       163500                       # number of UpgradeReq MSHR miss cycles
system.l2.UpgradeReq_mshr_miss_latency::cpu2.data       648000                       # number of UpgradeReq MSHR miss cycles
system.l2.UpgradeReq_mshr_miss_latency::total       811500                       # number of UpgradeReq MSHR miss cycles
system.l2.SCUpgradeReq_mshr_miss_latency::cpu1.data        81000                       # number of SCUpgradeReq MSHR miss cycles
system.l2.SCUpgradeReq_mshr_miss_latency::cpu2.data       202500                       # number of SCUpgradeReq MSHR miss cycles
system.l2.SCUpgradeReq_mshr_miss_latency::total       283500                       # number of SCUpgradeReq MSHR miss cycles
system.l2.ReadExReq_mshr_miss_latency::cpu0.data      7341500                       # number of ReadExReq MSHR miss cycles
system.l2.ReadExReq_mshr_miss_latency::cpu1.data      2029000                       # number of ReadExReq MSHR miss cycles
system.l2.ReadExReq_mshr_miss_latency::cpu2.data      2022000                       # number of ReadExReq MSHR miss cycles
system.l2.ReadExReq_mshr_miss_latency::total     11392500                       # number of ReadExReq MSHR miss cycles
system.l2.demand_mshr_miss_latency::cpu0.inst     13208000                       # number of demand (read+write) MSHR miss cycles
system.l2.demand_mshr_miss_latency::cpu0.data     10887000                       # number of demand (read+write) MSHR miss cycles
system.l2.demand_mshr_miss_latency::cpu1.inst      4032000                       # number of demand (read+write) MSHR miss cycles
system.l2.demand_mshr_miss_latency::cpu1.data      2867000                       # number of demand (read+write) MSHR miss cycles
system.l2.demand_mshr_miss_latency::cpu2.inst      4246000                       # number of demand (read+write) MSHR miss cycles
system.l2.demand_mshr_miss_latency::cpu2.data      2616500                       # number of demand (read+write) MSHR miss cycles
system.l2.demand_mshr_miss_latency::total     37856500                       # number of demand (read+write) MSHR miss cycles
system.l2.overall_mshr_miss_latency::cpu0.inst     13208000                       # number of overall MSHR miss cycles
system.l2.overall_mshr_miss_latency::cpu0.data     10887000                       # number of overall MSHR miss cycles
system.l2.overall_mshr_miss_latency::cpu1.inst      4032000                       # number of overall MSHR miss cycles
system.l2.overall_mshr_miss_latency::cpu1.data      2867000                       # number of overall MSHR miss cycles
system.l2.overall_mshr_miss_latency::cpu2.inst      4246000                       # number of overall MSHR miss cycles
system.l2.overall_mshr_miss_latency::cpu2.data      2616500                       # number of overall MSHR miss cycles
system.l2.overall_mshr_miss_latency::total     37856500                       # number of overall MSHR miss cycles
system.l2.ReadReq_mshr_miss_rate::cpu0.inst     0.936047                       # mshr miss rate for ReadReq accesses
system.l2.ReadReq_mshr_miss_rate::cpu0.data     0.763636                       # mshr miss rate for ReadReq accesses
system.l2.ReadReq_mshr_miss_rate::cpu1.inst     0.237981                       # mshr miss rate for ReadReq accesses
system.l2.ReadReq_mshr_miss_rate::cpu1.data     0.454545                       # mshr miss rate for ReadReq accesses
system.l2.ReadReq_mshr_miss_rate::cpu2.inst     0.296296                       # mshr miss rate for ReadReq accesses
system.l2.ReadReq_mshr_miss_rate::cpu2.data     0.341463                       # mshr miss rate for ReadReq accesses
system.l2.ReadReq_mshr_miss_rate::total      0.492343                       # mshr miss rate for ReadReq accesses
system.l2.UpgradeReq_mshr_miss_rate::cpu1.data     0.800000                       # mshr miss rate for UpgradeReq accesses
system.l2.UpgradeReq_mshr_miss_rate::cpu2.data     0.941176                       # mshr miss rate for UpgradeReq accesses
system.l2.UpgradeReq_mshr_miss_rate::total     0.909091                       # mshr miss rate for UpgradeReq accesses
system.l2.SCUpgradeReq_mshr_miss_rate::cpu1.data     0.400000                       # mshr miss rate for SCUpgradeReq accesses
system.l2.SCUpgradeReq_mshr_miss_rate::cpu2.data            1                       # mshr miss rate for SCUpgradeReq accesses
system.l2.SCUpgradeReq_mshr_miss_rate::total     0.700000                       # mshr miss rate for SCUpgradeReq accesses
system.l2.ReadExReq_mshr_miss_rate::cpu0.data            1                       # mshr miss rate for ReadExReq accesses
system.l2.ReadExReq_mshr_miss_rate::cpu1.data            1                       # mshr miss rate for ReadExReq accesses
system.l2.ReadExReq_mshr_miss_rate::cpu2.data            1                       # mshr miss rate for ReadExReq accesses
system.l2.ReadExReq_mshr_miss_rate::total            1                       # mshr miss rate for ReadExReq accesses
system.l2.demand_mshr_miss_rate::cpu0.inst     0.936047                       # mshr miss rate for demand accesses
system.l2.demand_mshr_miss_rate::cpu0.data     0.910345                       # mshr miss rate for demand accesses
system.l2.demand_mshr_miss_rate::cpu1.inst     0.237981                       # mshr miss rate for demand accesses
system.l2.demand_mshr_miss_rate::cpu1.data     0.741935                       # mshr miss rate for demand accesses
system.l2.demand_mshr_miss_rate::cpu2.inst     0.296296                       # mshr miss rate for demand accesses
system.l2.demand_mshr_miss_rate::cpu2.data     0.700000                       # mshr miss rate for demand accesses
system.l2.demand_mshr_miss_rate::total       0.581439                       # mshr miss rate for demand accesses
system.l2.overall_mshr_miss_rate::cpu0.inst     0.936047                       # mshr miss rate for overall accesses
system.l2.overall_mshr_miss_rate::cpu0.data     0.910345                       # mshr miss rate for overall accesses
system.l2.overall_mshr_miss_rate::cpu1.inst     0.237981                       # mshr miss rate for overall accesses
system.l2.overall_mshr_miss_rate::cpu1.data     0.741935                       # mshr miss rate for overall accesses
system.l2.overall_mshr_miss_rate::cpu2.inst     0.296296                       # mshr miss rate for overall accesses
system.l2.overall_mshr_miss_rate::cpu2.data     0.700000                       # mshr miss rate for overall accesses
system.l2.overall_mshr_miss_rate::total      0.581439                       # mshr miss rate for overall accesses
system.l2.ReadReq_avg_mshr_miss_latency::cpu0.inst 41018.633540                       # average ReadReq mshr miss latency
system.l2.ReadReq_avg_mshr_miss_latency::cpu0.data 42208.333333                       # average ReadReq mshr miss latency
system.l2.ReadReq_avg_mshr_miss_latency::cpu1.inst 40727.272727                       # average ReadReq mshr miss latency
system.l2.ReadReq_avg_mshr_miss_latency::cpu1.data        41900                       # average ReadReq mshr miss latency
system.l2.ReadReq_avg_mshr_miss_latency::cpu2.inst 40826.923077                       # average ReadReq mshr miss latency
system.l2.ReadReq_avg_mshr_miss_latency::cpu2.data 42464.285714                       # average ReadReq mshr miss latency
system.l2.ReadReq_avg_mshr_miss_latency::total 41157.076205                       # average ReadReq mshr miss latency
system.l2.UpgradeReq_avg_mshr_miss_latency::cpu1.data        40875                       # average UpgradeReq mshr miss latency
system.l2.UpgradeReq_avg_mshr_miss_latency::cpu2.data        40500                       # average UpgradeReq mshr miss latency
system.l2.UpgradeReq_avg_mshr_miss_latency::total        40575                       # average UpgradeReq mshr miss latency
system.l2.SCUpgradeReq_avg_mshr_miss_latency::cpu1.data        40500                       # average SCUpgradeReq mshr miss latency
system.l2.SCUpgradeReq_avg_mshr_miss_latency::cpu2.data        40500                       # average SCUpgradeReq mshr miss latency
system.l2.SCUpgradeReq_avg_mshr_miss_latency::total        40500                       # average SCUpgradeReq mshr miss latency
system.l2.ReadExReq_avg_mshr_miss_latency::cpu0.data 40786.111111                       # average ReadExReq mshr miss latency
system.l2.ReadExReq_avg_mshr_miss_latency::cpu1.data 41408.163265                       # average ReadExReq mshr miss latency
system.l2.ReadExReq_avg_mshr_miss_latency::cpu2.data 41265.306122                       # average ReadExReq mshr miss latency
system.l2.ReadExReq_avg_mshr_miss_latency::total 40980.215827                       # average ReadExReq mshr miss latency
system.l2.demand_avg_mshr_miss_latency::cpu0.inst 41018.633540                       # average overall mshr miss latency
system.l2.demand_avg_mshr_miss_latency::cpu0.data 41238.636364                       # average overall mshr miss latency
system.l2.demand_avg_mshr_miss_latency::cpu1.inst 40727.272727                       # average overall mshr miss latency
system.l2.demand_avg_mshr_miss_latency::cpu1.data 41550.724638                       # average overall mshr miss latency
system.l2.demand_avg_mshr_miss_latency::cpu2.inst 40826.923077                       # average overall mshr miss latency
system.l2.demand_avg_mshr_miss_latency::cpu2.data 41531.746032                       # average overall mshr miss latency
system.l2.demand_avg_mshr_miss_latency::total 41103.691640                       # average overall mshr miss latency
system.l2.overall_avg_mshr_miss_latency::cpu0.inst 41018.633540                       # average overall mshr miss latency
system.l2.overall_avg_mshr_miss_latency::cpu0.data 41238.636364                       # average overall mshr miss latency
system.l2.overall_avg_mshr_miss_latency::cpu1.inst 40727.272727                       # average overall mshr miss latency
system.l2.overall_avg_mshr_miss_latency::cpu1.data 41550.724638                       # average overall mshr miss latency
system.l2.overall_avg_mshr_miss_latency::cpu2.inst 40826.923077                       # average overall mshr miss latency
system.l2.overall_avg_mshr_miss_latency::cpu2.data 41531.746032                       # average overall mshr miss latency
system.l2.overall_avg_mshr_miss_latency::total 41103.691640                       # average overall mshr miss latency
system.l2.no_allocate_misses                        0                       # Number of misses that were no-allocate
system.membus.trans_dist::ReadReq                 643                       # Transaction distribution
system.membus.trans_dist::ReadResp                643                       # Transaction distribution
system.membus.trans_dist::UpgradeReq               87                       # Transaction distribution
system.membus.trans_dist::SCUpgradeReq            113                       # Transaction distribution
system.membus.trans_dist::UpgradeResp              27                       # Transaction distribution
system.membus.trans_dist::ReadExReq               278                       # Transaction distribution
system.membus.trans_dist::ReadExResp              278                       # Transaction distribution
system.membus.pkt_count_system.l2.mem_side::system.physmem.port         2069                       # Packet count per connected master and slave (bytes)
system.membus.pkt_count::total                   2069                       # Packet count per connected master and slave (bytes)
system.membus.pkt_size_system.l2.mem_side::system.physmem.port        58944                       # Cumulative packet size per connected master and slave (bytes)
system.membus.pkt_size::total                   58944                       # Cumulative packet size per connected master and slave (bytes)
system.membus.snoops                              173                       # Total snoops (count)
system.membus.snoop_fanout::samples              1253                       # Request fanout histogram
system.membus.snoop_fanout::mean                    0                       # Request fanout histogram
system.membus.snoop_fanout::stdev                   0                       # Request fanout histogram
system.membus.snoop_fanout::underflows              0      0.00%      0.00% # Request fanout histogram
system.membus.snoop_fanout::0                    1253    100.00%    100.00% # Request fanout histogram
system.membus.snoop_fanout::1                       0      0.00%    100.00% # Request fanout histogram
system.membus.snoop_fanout::overflows               0      0.00%    100.00% # Request fanout histogram
system.membus.snoop_fanout::min_value               0                       # Request fanout histogram
system.membus.snoop_fanout::max_value               0                       # Request fanout histogram
system.membus.snoop_fanout::total                1253                       # Request fanout histogram
system.membus.reqLayer0.occupancy             1594560                       # Layer occupancy (ticks)
system.membus.reqLayer0.utilization               1.9                       # Layer utilization (%)
system.membus.respLayer1.occupancy            5029000                       # Layer occupancy (ticks)
system.membus.respLayer1.utilization              5.9                       # Layer utilization (%)
system.tol2bus.trans_dist::ReadReq               1540                       # Transaction distribution
system.tol2bus.trans_dist::ReadResp              1540                       # Transaction distribution
system.tol2bus.trans_dist::Writeback               13                       # Transaction distribution
system.tol2bus.trans_dist::UpgradeReq              89                       # Transaction distribution
system.tol2bus.trans_dist::SCUpgradeReq           116                       # Transaction distribution
system.tol2bus.trans_dist::UpgradeResp            205                       # Transaction distribution
system.tol2bus.trans_dist::SCUpgradeFailReq            2                       # Transaction distribution
system.tol2bus.trans_dist::UpgradeFailResp            2                       # Transaction distribution
system.tol2bus.trans_dist::ReadExReq              279                       # Transaction distribution
system.tol2bus.trans_dist::ReadExResp             279                       # Transaction distribution
system.tol2bus.pkt_count_system.cpu0.icache.mem_side::system.l2.cpu_side          688                       # Packet count per connected master and slave (bytes)
system.tol2bus.pkt_count_system.cpu0.dcache.mem_side::system.l2.cpu_side          590                       # Packet count per connected master and slave (bytes)
system.tol2bus.pkt_count_system.cpu1.icache.mem_side::system.l2.cpu_side          832                       # Packet count per connected master and slave (bytes)
system.tol2bus.pkt_count_system.cpu1.dcache.mem_side::system.l2.cpu_side          414                       # Packet count per connected master and slave (bytes)
system.tol2bus.pkt_count_system.cpu2.icache.mem_side::system.l2.cpu_side          702                       # Packet count per connected master and slave (bytes)
system.tol2bus.pkt_count_system.cpu2.dcache.mem_side::system.l2.cpu_side          429                       # Packet count per connected master and slave (bytes)
system.tol2bus.pkt_count::total                  3655                       # Packet count per connected master and slave (bytes)
system.tol2bus.pkt_size_system.cpu0.icache.mem_side::system.l2.cpu_side        22016                       # Cumulative packet size per connected master and slave (bytes)
system.tol2bus.pkt_size_system.cpu0.dcache.mem_side::system.l2.cpu_side        19200                       # Cumulative packet size per connected master and slave (bytes)
system.tol2bus.pkt_size_system.cpu1.icache.mem_side::system.l2.cpu_side        26624                       # Cumulative packet size per connected master and slave (bytes)
system.tol2bus.pkt_size_system.cpu1.dcache.mem_side::system.l2.cpu_side         6016                       # Cumulative packet size per connected master and slave (bytes)
system.tol2bus.pkt_size_system.cpu2.icache.mem_side::system.l2.cpu_side        22464                       # Cumulative packet size per connected master and slave (bytes)
system.tol2bus.pkt_size_system.cpu2.dcache.mem_side::system.l2.cpu_side         5888                       # Cumulative packet size per connected master and slave (bytes)
system.tol2bus.pkt_size::total                 102208                       # Cumulative packet size per connected master and slave (bytes)
system.tol2bus.snoops                             410                       # Total snoops (count)
system.tol2bus.snoop_fanout::samples             2039                       # Request fanout histogram
system.tol2bus.snoop_fanout::mean                   5                       # Request fanout histogram
system.tol2bus.snoop_fanout::stdev                  0                       # Request fanout histogram
system.tol2bus.snoop_fanout::underflows             0      0.00%      0.00% # Request fanout histogram
system.tol2bus.snoop_fanout::0                      0      0.00%      0.00% # Request fanout histogram
system.tol2bus.snoop_fanout::1                      0      0.00%      0.00% # Request fanout histogram
system.tol2bus.snoop_fanout::2                      0      0.00%      0.00% # Request fanout histogram
system.tol2bus.snoop_fanout::3                      0      0.00%      0.00% # Request fanout histogram
system.tol2bus.snoop_fanout::4                      0      0.00%      0.00% # Request fanout histogram
system.tol2bus.snoop_fanout::5                   2039    100.00%    100.00% # Request fanout histogram
system.tol2bus.snoop_fanout::6                      0      0.00%    100.00% # Request fanout histogram
system.tol2bus.snoop_fanout::overflows              0      0.00%    100.00% # Request fanout histogram
system.tol2bus.snoop_fanout::min_value              5                       # Request fanout histogram
system.tol2bus.snoop_fanout::max_value              5                       # Request fanout histogram
system.tol2bus.snoop_fanout::total               2039                       # Request fanout histogram
system.tol2bus.reqLayer0.occupancy            1032500                       # Layer occupancy (ticks)
system.tol2bus.reqLayer0.utilization              1.2                       # Layer utilization (%)
system.tol2bus.respLayer0.occupancy            516998                       # Layer occupancy (ticks)
system.tol2bus.respLayer0.utilization             0.6                       # Layer utilization (%)
system.tol2bus.respLayer1.occupancy            437994                       # Layer occupancy (ticks)
system.tol2bus.respLayer1.utilization             0.5                       # Layer utilization (%)
system.tol2bus.respLayer4.occupancy            638471                       # Layer occupancy (ticks)
system.tol2bus.respLayer4.utilization             0.7                       # Layer utilization (%)
system.tol2bus.respLayer5.occupancy            371000                       # Layer occupancy (ticks)
system.tol2bus.respLayer5.utilization             0.4                       # Layer utilization (%)
system.tol2bus.respLayer8.occupancy            552448                       # Layer occupancy (ticks)
system.tol2bus.respLayer8.utilization             0.6                       # Layer utilization (%)
system.tol2bus.respLayer9.occupancy            365492                       # Layer occupancy (ticks)
system.tol2bus.respLayer9.utilization             0.4                       # Layer utilization (%)

---------- End Simulation Statistics   ----------
