
---------- Begin Simulation Statistics ----------
sim_seconds                                  0.040028                       # Number of seconds simulated
sim_ticks                                 40027592000                       # Number of ticks simulated
final_tick                                40027592000                       # Number of ticks from beginning of simulation (restored from checkpoints and never reset)
sim_freq                                 1000000000000                       # Frequency of simulated ticks
host_inst_rate                                 194998                       # Simulator instruction rate (inst/s)
host_op_rate                                   204071                       # Simulator op (including micro ops) rate (op/s)
host_tick_rate                               49094406                       # Simulator tick rate (ticks/s)
host_mem_usage                                 685820                       # Number of bytes of host memory used
host_seconds                                   815.32                       # Real time elapsed on the host
sim_insts                                   158985451                       # Number of instructions simulated
sim_ops                                     166382959                       # Number of ops (including micro ops) simulated
system.voltage_domain.voltage                       1                       # Voltage in Volts
system.clk_domain.clock                          1000                       # Clock period in ticks
system.physmem.bytes_read::cpu0.inst            20864                       # Number of bytes read from this memory
system.physmem.bytes_read::cpu0.data            66240                       # Number of bytes read from this memory
system.physmem.bytes_read::cpu1.inst             9472                       # Number of bytes read from this memory
system.physmem.bytes_read::cpu1.data            98496                       # Number of bytes read from this memory
system.physmem.bytes_read::cpu2.inst            10304                       # Number of bytes read from this memory
system.physmem.bytes_read::cpu2.data            99776                       # Number of bytes read from this memory
system.physmem.bytes_read::total               305152                       # Number of bytes read from this memory
system.physmem.bytes_inst_read::cpu0.inst        20864                       # Number of instructions bytes read from this memory
system.physmem.bytes_inst_read::cpu1.inst         9472                       # Number of instructions bytes read from this memory
system.physmem.bytes_inst_read::cpu2.inst        10304                       # Number of instructions bytes read from this memory
system.physmem.bytes_inst_read::total           40640                       # Number of instructions bytes read from this memory
system.physmem.num_reads::cpu0.inst               326                       # Number of read requests responded to by this memory
system.physmem.num_reads::cpu0.data              1035                       # Number of read requests responded to by this memory
system.physmem.num_reads::cpu1.inst               148                       # Number of read requests responded to by this memory
system.physmem.num_reads::cpu1.data              1539                       # Number of read requests responded to by this memory
system.physmem.num_reads::cpu2.inst               161                       # Number of read requests responded to by this memory
system.physmem.num_reads::cpu2.data              1559                       # Number of read requests responded to by this memory
system.physmem.num_reads::total                  4768                       # Number of read requests responded to by this memory
system.physmem.bw_read::cpu0.inst              521240                       # Total read bandwidth from this memory (bytes/s)
system.physmem.bw_read::cpu0.data             1654858                       # Total read bandwidth from this memory (bytes/s)
system.physmem.bw_read::cpu1.inst              236637                       # Total read bandwidth from this memory (bytes/s)
system.physmem.bw_read::cpu1.data             2460703                       # Total read bandwidth from this memory (bytes/s)
system.physmem.bw_read::cpu2.inst              257422                       # Total read bandwidth from this memory (bytes/s)
system.physmem.bw_read::cpu2.data             2492681                       # Total read bandwidth from this memory (bytes/s)
system.physmem.bw_read::total                 7623541                       # Total read bandwidth from this memory (bytes/s)
system.physmem.bw_inst_read::cpu0.inst         521240                       # Instruction read bandwidth from this memory (bytes/s)
system.physmem.bw_inst_read::cpu1.inst         236637                       # Instruction read bandwidth from this memory (bytes/s)
system.physmem.bw_inst_read::cpu2.inst         257422                       # Instruction read bandwidth from this memory (bytes/s)
system.physmem.bw_inst_read::total            1015300                       # Instruction read bandwidth from this memory (bytes/s)
system.physmem.bw_total::cpu0.inst             521240                       # Total bandwidth to/from this memory (bytes/s)
system.physmem.bw_total::cpu0.data            1654858                       # Total bandwidth to/from this memory (bytes/s)
system.physmem.bw_total::cpu1.inst             236637                       # Total bandwidth to/from this memory (bytes/s)
system.physmem.bw_total::cpu1.data            2460703                       # Total bandwidth to/from this memory (bytes/s)
system.physmem.bw_total::cpu2.inst             257422                       # Total bandwidth to/from this memory (bytes/s)
system.physmem.bw_total::cpu2.data            2492681                       # Total bandwidth to/from this memory (bytes/s)
system.physmem.bw_total::total                7623541                       # Total bandwidth to/from this memory (bytes/s)
system.cpu0.branchPred.lookups               20003404                       # Number of BP lookups
system.cpu0.branchPred.condPredicted         19998482                       # Number of conditional branches predicted
system.cpu0.branchPred.condIncorrect              536                       # Number of conditional branches incorrect
system.cpu0.branchPred.BTBLookups            19997774                       # Number of BTB lookups
system.cpu0.branchPred.BTBHits               19997409                       # Number of BTB hits
system.cpu0.branchPred.BTBCorrect                   0                       # Number of correct BTB predictions (this stat may not work properly.
system.cpu0.branchPred.BTBHitPct            99.998175                       # BTB Hit Percentage
system.cpu0.branchPred.usedRAS                   2308                       # Number of times the RAS was used to get a target.
system.cpu0.branchPred.RASInCorrect                58                       # Number of incorrect RAS predictions.
system.cpu0.dstage2_mmu.stage2_tlb.walker.walks            0                       # Table walker walks requested
system.cpu0.dstage2_mmu.stage2_tlb.walker.walkRequestOrigin_Requested::Data            0                       # Table walker requests started/completed, data/inst
system.cpu0.dstage2_mmu.stage2_tlb.walker.walkRequestOrigin_Requested::Inst            0                       # Table walker requests started/completed, data/inst
system.cpu0.dstage2_mmu.stage2_tlb.walker.walkRequestOrigin_Requested::total            0                       # Table walker requests started/completed, data/inst
system.cpu0.dstage2_mmu.stage2_tlb.walker.walkRequestOrigin_Completed::Data            0                       # Table walker requests started/completed, data/inst
system.cpu0.dstage2_mmu.stage2_tlb.walker.walkRequestOrigin_Completed::Inst            0                       # Table walker requests started/completed, data/inst
system.cpu0.dstage2_mmu.stage2_tlb.walker.walkRequestOrigin_Completed::total            0                       # Table walker requests started/completed, data/inst
system.cpu0.dstage2_mmu.stage2_tlb.walker.walkRequestOrigin::total            0                       # Table walker requests started/completed, data/inst
system.cpu0.dstage2_mmu.stage2_tlb.inst_hits            0                       # ITB inst hits
system.cpu0.dstage2_mmu.stage2_tlb.inst_misses            0                       # ITB inst misses
system.cpu0.dstage2_mmu.stage2_tlb.read_hits            0                       # DTB read hits
system.cpu0.dstage2_mmu.stage2_tlb.read_misses            0                       # DTB read misses
system.cpu0.dstage2_mmu.stage2_tlb.write_hits            0                       # DTB write hits
system.cpu0.dstage2_mmu.stage2_tlb.write_misses            0                       # DTB write misses
system.cpu0.dstage2_mmu.stage2_tlb.flush_tlb            0                       # Number of times complete TLB was flushed
system.cpu0.dstage2_mmu.stage2_tlb.flush_tlb_mva            0                       # Number of times TLB was flushed by MVA
system.cpu0.dstage2_mmu.stage2_tlb.flush_tlb_mva_asid            0                       # Number of times TLB was flushed by MVA & ASID
system.cpu0.dstage2_mmu.stage2_tlb.flush_tlb_asid            0                       # Number of times TLB was flushed by ASID
system.cpu0.dstage2_mmu.stage2_tlb.flush_entries            0                       # Number of entries that have been flushed from TLB
system.cpu0.dstage2_mmu.stage2_tlb.align_faults            0                       # Number of TLB faults due to alignment restrictions
system.cpu0.dstage2_mmu.stage2_tlb.prefetch_faults            0                       # Number of TLB faults due to prefetch
system.cpu0.dstage2_mmu.stage2_tlb.domain_faults            0                       # Number of TLB faults due to domain restrictions
system.cpu0.dstage2_mmu.stage2_tlb.perms_faults            0                       # Number of TLB faults due to permissions restrictions
system.cpu0.dstage2_mmu.stage2_tlb.read_accesses            0                       # DTB read accesses
system.cpu0.dstage2_mmu.stage2_tlb.write_accesses            0                       # DTB write accesses
system.cpu0.dstage2_mmu.stage2_tlb.inst_accesses            0                       # ITB inst accesses
system.cpu0.dstage2_mmu.stage2_tlb.hits             0                       # DTB hits
system.cpu0.dstage2_mmu.stage2_tlb.misses            0                       # DTB misses
system.cpu0.dstage2_mmu.stage2_tlb.accesses            0                       # DTB accesses
system.cpu0.dtb.walker.walks                        0                       # Table walker walks requested
system.cpu0.dtb.walker.walkRequestOrigin_Requested::Data            0                       # Table walker requests started/completed, data/inst
system.cpu0.dtb.walker.walkRequestOrigin_Requested::Inst            0                       # Table walker requests started/completed, data/inst
system.cpu0.dtb.walker.walkRequestOrigin_Requested::total            0                       # Table walker requests started/completed, data/inst
system.cpu0.dtb.walker.walkRequestOrigin_Completed::Data            0                       # Table walker requests started/completed, data/inst
system.cpu0.dtb.walker.walkRequestOrigin_Completed::Inst            0                       # Table walker requests started/completed, data/inst
system.cpu0.dtb.walker.walkRequestOrigin_Completed::total            0                       # Table walker requests started/completed, data/inst
system.cpu0.dtb.walker.walkRequestOrigin::total            0                       # Table walker requests started/completed, data/inst
system.cpu0.dtb.inst_hits                           0                       # ITB inst hits
system.cpu0.dtb.inst_misses                         0                       # ITB inst misses
system.cpu0.dtb.read_hits                           0                       # DTB read hits
system.cpu0.dtb.read_misses                         0                       # DTB read misses
system.cpu0.dtb.write_hits                          0                       # DTB write hits
system.cpu0.dtb.write_misses                        0                       # DTB write misses
system.cpu0.dtb.flush_tlb                           0                       # Number of times complete TLB was flushed
system.cpu0.dtb.flush_tlb_mva                       0                       # Number of times TLB was flushed by MVA
system.cpu0.dtb.flush_tlb_mva_asid                  0                       # Number of times TLB was flushed by MVA & ASID
system.cpu0.dtb.flush_tlb_asid                      0                       # Number of times TLB was flushed by ASID
system.cpu0.dtb.flush_entries                       0                       # Number of entries that have been flushed from TLB
system.cpu0.dtb.align_faults                        0                       # Number of TLB faults due to alignment restrictions
system.cpu0.dtb.prefetch_faults                     0                       # Number of TLB faults due to prefetch
system.cpu0.dtb.domain_faults                       0                       # Number of TLB faults due to domain restrictions
system.cpu0.dtb.perms_faults                        0                       # Number of TLB faults due to permissions restrictions
system.cpu0.dtb.read_accesses                       0                       # DTB read accesses
system.cpu0.dtb.write_accesses                      0                       # DTB write accesses
system.cpu0.dtb.inst_accesses                       0                       # ITB inst accesses
system.cpu0.dtb.hits                                0                       # DTB hits
system.cpu0.dtb.misses                              0                       # DTB misses
system.cpu0.dtb.accesses                            0                       # DTB accesses
system.cpu0.istage2_mmu.stage2_tlb.walker.walks            0                       # Table walker walks requested
system.cpu0.istage2_mmu.stage2_tlb.walker.walkRequestOrigin_Requested::Data            0                       # Table walker requests started/completed, data/inst
system.cpu0.istage2_mmu.stage2_tlb.walker.walkRequestOrigin_Requested::Inst            0                       # Table walker requests started/completed, data/inst
system.cpu0.istage2_mmu.stage2_tlb.walker.walkRequestOrigin_Requested::total            0                       # Table walker requests started/completed, data/inst
system.cpu0.istage2_mmu.stage2_tlb.walker.walkRequestOrigin_Completed::Data            0                       # Table walker requests started/completed, data/inst
system.cpu0.istage2_mmu.stage2_tlb.walker.walkRequestOrigin_Completed::Inst            0                       # Table walker requests started/completed, data/inst
system.cpu0.istage2_mmu.stage2_tlb.walker.walkRequestOrigin_Completed::total            0                       # Table walker requests started/completed, data/inst
system.cpu0.istage2_mmu.stage2_tlb.walker.walkRequestOrigin::total            0                       # Table walker requests started/completed, data/inst
system.cpu0.istage2_mmu.stage2_tlb.inst_hits            0                       # ITB inst hits
system.cpu0.istage2_mmu.stage2_tlb.inst_misses            0                       # ITB inst misses
system.cpu0.istage2_mmu.stage2_tlb.read_hits            0                       # DTB read hits
system.cpu0.istage2_mmu.stage2_tlb.read_misses            0                       # DTB read misses
system.cpu0.istage2_mmu.stage2_tlb.write_hits            0                       # DTB write hits
system.cpu0.istage2_mmu.stage2_tlb.write_misses            0                       # DTB write misses
system.cpu0.istage2_mmu.stage2_tlb.flush_tlb            0                       # Number of times complete TLB was flushed
system.cpu0.istage2_mmu.stage2_tlb.flush_tlb_mva            0                       # Number of times TLB was flushed by MVA
system.cpu0.istage2_mmu.stage2_tlb.flush_tlb_mva_asid            0                       # Number of times TLB was flushed by MVA & ASID
system.cpu0.istage2_mmu.stage2_tlb.flush_tlb_asid            0                       # Number of times TLB was flushed by ASID
system.cpu0.istage2_mmu.stage2_tlb.flush_entries            0                       # Number of entries that have been flushed from TLB
system.cpu0.istage2_mmu.stage2_tlb.align_faults            0                       # Number of TLB faults due to alignment restrictions
system.cpu0.istage2_mmu.stage2_tlb.prefetch_faults            0                       # Number of TLB faults due to prefetch
system.cpu0.istage2_mmu.stage2_tlb.domain_faults            0                       # Number of TLB faults due to domain restrictions
system.cpu0.istage2_mmu.stage2_tlb.perms_faults            0                       # Number of TLB faults due to permissions restrictions
system.cpu0.istage2_mmu.stage2_tlb.read_accesses            0                       # DTB read accesses
system.cpu0.istage2_mmu.stage2_tlb.write_accesses            0                       # DTB write accesses
system.cpu0.istage2_mmu.stage2_tlb.inst_accesses            0                       # ITB inst accesses
system.cpu0.istage2_mmu.stage2_tlb.hits             0                       # DTB hits
system.cpu0.istage2_mmu.stage2_tlb.misses            0                       # DTB misses
system.cpu0.istage2_mmu.stage2_tlb.accesses            0                       # DTB accesses
system.cpu0.itb.walker.walks                        0                       # Table walker walks requested
system.cpu0.itb.walker.walkRequestOrigin_Requested::Data            0                       # Table walker requests started/completed, data/inst
system.cpu0.itb.walker.walkRequestOrigin_Requested::Inst            0                       # Table walker requests started/completed, data/inst
system.cpu0.itb.walker.walkRequestOrigin_Requested::total            0                       # Table walker requests started/completed, data/inst
system.cpu0.itb.walker.walkRequestOrigin_Completed::Data            0                       # Table walker requests started/completed, data/inst
system.cpu0.itb.walker.walkRequestOrigin_Completed::Inst            0                       # Table walker requests started/completed, data/inst
system.cpu0.itb.walker.walkRequestOrigin_Completed::total            0                       # Table walker requests started/completed, data/inst
system.cpu0.itb.walker.walkRequestOrigin::total            0                       # Table walker requests started/completed, data/inst
system.cpu0.itb.inst_hits                           0                       # ITB inst hits
system.cpu0.itb.inst_misses                         0                       # ITB inst misses
system.cpu0.itb.read_hits                           0                       # DTB read hits
system.cpu0.itb.read_misses                         0                       # DTB read misses
system.cpu0.itb.write_hits                          0                       # DTB write hits
system.cpu0.itb.write_misses                        0                       # DTB write misses
system.cpu0.itb.flush_tlb                           0                       # Number of times complete TLB was flushed
system.cpu0.itb.flush_tlb_mva                       0                       # Number of times TLB was flushed by MVA
system.cpu0.itb.flush_tlb_mva_asid                  0                       # Number of times TLB was flushed by MVA & ASID
system.cpu0.itb.flush_tlb_asid                      0                       # Number of times TLB was flushed by ASID
system.cpu0.itb.flush_entries                       0                       # Number of entries that have been flushed from TLB
system.cpu0.itb.align_faults                        0                       # Number of TLB faults due to alignment restrictions
system.cpu0.itb.prefetch_faults                     0                       # Number of TLB faults due to prefetch
system.cpu0.itb.domain_faults                       0                       # Number of TLB faults due to domain restrictions
system.cpu0.itb.perms_faults                        0                       # Number of TLB faults due to permissions restrictions
system.cpu0.itb.read_accesses                       0                       # DTB read accesses
system.cpu0.itb.write_accesses                      0                       # DTB write accesses
system.cpu0.itb.inst_accesses                       0                       # ITB inst accesses
system.cpu0.itb.hits                                0                       # DTB hits
system.cpu0.itb.misses                              0                       # DTB misses
system.cpu0.itb.accesses                            0                       # DTB accesses
system.cpu0.workload.num_syscalls               31221                       # Number of system calls
system.cpu0.numCycles                        40027593                       # number of cpu cycles simulated
system.cpu0.numWorkItemsStarted                     0                       # number of work items this cpu started
system.cpu0.numWorkItemsCompleted                   0                       # number of work items this cpu completed
system.cpu0.fetch.icacheStallCycles             12461                       # Number of cycles fetch is stalled on an Icache miss
system.cpu0.fetch.Insts                     100007845                       # Number of instructions fetch has processed
system.cpu0.fetch.Branches                   20003404                       # Number of branches that fetch encountered
system.cpu0.fetch.predictedBranches          19999717                       # Number of branches that fetch has predicted taken
system.cpu0.fetch.Cycles                     40007071                       # Number of cycles fetch has run and was not squashing or blocked
system.cpu0.fetch.SquashCycles                   1274                       # Number of cycles fetch has spent squashing
system.cpu0.fetch.PendingTrapStallCycles          154                       # Number of stall cycles due to pending traps
system.cpu0.fetch.CacheLines                     6487                       # Number of cache lines fetched
system.cpu0.fetch.IcacheSquashes                  234                       # Number of outstanding Icache misses that were squashed
system.cpu0.fetch.rateDist::samples          40020323                       # Number of instructions fetched each cycle (Total)
system.cpu0.fetch.rateDist::mean             2.499030                       # Number of instructions fetched each cycle (Total)
system.cpu0.fetch.rateDist::stdev            0.502541                       # Number of instructions fetched each cycle (Total)
system.cpu0.fetch.rateDist::underflows              0      0.00%      0.00% # Number of instructions fetched each cycle (Total)
system.cpu0.fetch.rateDist::0                   16077      0.04%      0.04% # Number of instructions fetched each cycle (Total)
system.cpu0.fetch.rateDist::1                    2769      0.01%      0.05% # Number of instructions fetched each cycle (Total)
system.cpu0.fetch.rateDist::2                19995207     49.96%     50.01% # Number of instructions fetched each cycle (Total)
system.cpu0.fetch.rateDist::3                20006270     49.99%    100.00% # Number of instructions fetched each cycle (Total)
system.cpu0.fetch.rateDist::overflows               0      0.00%    100.00% # Number of instructions fetched each cycle (Total)
system.cpu0.fetch.rateDist::min_value               0                       # Number of instructions fetched each cycle (Total)
system.cpu0.fetch.rateDist::max_value               3                       # Number of instructions fetched each cycle (Total)
system.cpu0.fetch.rateDist::total            40020323                       # Number of instructions fetched each cycle (Total)
system.cpu0.fetch.branchRate                 0.499740                       # Number of branch fetches per cycle
system.cpu0.fetch.rate                       2.498473                       # Number of inst fetches per cycle
system.cpu0.decode.IdleCycles                   11407                       # Number of cycles decode is idle
system.cpu0.decode.BlockedCycles                 5260                       # Number of cycles decode is blocked
system.cpu0.decode.RunCycles                 40002486                       # Number of cycles decode is running
system.cpu0.decode.UnblockCycles                  714                       # Number of cycles decode is unblocking
system.cpu0.decode.SquashCycles                   456                       # Number of cycles decode is squashing
system.cpu0.decode.BranchResolved                2383                       # Number of times decode resolved a branch
system.cpu0.decode.BranchMispred                  187                       # Number of times decode detected a branch misprediction
system.cpu0.decode.DecodedInsts             100009620                       # Number of instructions handled by decode
system.cpu0.decode.SquashedInsts                  408                       # Number of squashed instructions handled by decode
system.cpu0.rename.SquashCycles                   456                       # Number of cycles rename is squashing
system.cpu0.rename.IdleCycles                   11995                       # Number of cycles rename is idle
system.cpu0.rename.BlockCycles                    536                       # Number of cycles rename is blocking
system.cpu0.rename.serializeStallCycles          2003                       # count of cycles rename stalled for serializing inst
system.cpu0.rename.RunCycles                 40002508                       # Number of cycles rename is running
system.cpu0.rename.UnblockCycles                 2825                       # Number of cycles rename is unblocking
system.cpu0.rename.RenamedInsts             100008822                       # Number of instructions processed by rename
system.cpu0.rename.IQFullEvents                    14                       # Number of times rename has blocked due to IQ full
system.cpu0.rename.SQFullEvents                  2672                       # Number of times rename has blocked due to SQ full
system.cpu0.rename.RenamedOperands          100010349                       # Number of destination operands rename has renamed
system.cpu0.rename.RenameLookups            460026973                       # Number of register rename lookups that rename has made
system.cpu0.rename.int_rename_lookups       100010028                       # Number of integer rename lookups
system.cpu0.rename.fp_rename_lookups               16                       # Number of floating rename lookups
system.cpu0.rename.CommittedMaps            100004333                       # Number of HB maps that are committed
system.cpu0.rename.UndoneMaps                    5989                       # Number of HB maps that are undone due to squashing
system.cpu0.rename.serializingInsts                49                       # count of serializing insts renamed
system.cpu0.rename.tempSerializingInsts            49                       # count of temporary serializing insts renamed
system.cpu0.rename.skidInsts                     1168                       # count of insts added to the skid buffer
system.cpu0.memDep0.insertedLoads            39988697                       # Number of loads inserted to the mem dependence unit.
system.cpu0.memDep0.insertedStores           19997926                       # Number of stores inserted to the mem dependence unit.
system.cpu0.memDep0.conflictingLoads         19991976                       # Number of conflicting loads.
system.cpu0.memDep0.conflictingStores        19991942                       # Number of conflicting stores.
system.cpu0.iq.iqInstsAdded                 100007414                       # Number of instructions added to the IQ (excludes non-spec)
system.cpu0.iq.iqNonSpecInstsAdded                 73                       # Number of non-speculative instructions added to the IQ
system.cpu0.iq.iqInstsIssued                100005668                       # Number of instructions issued
system.cpu0.iq.iqSquashedInstsIssued              301                       # Number of squashed instructions issued
system.cpu0.iq.iqSquashedInstsExamined           4168                       # Number of squashed instructions iterated over during squash; mainly for profiling
system.cpu0.iq.iqSquashedOperandsExamined        10609                       # Number of squashed operands that are examined and possibly removed from graph
system.cpu0.iq.iqSquashedNonSpecRemoved             5                       # Number of squashed non-spec instructions that were removed
system.cpu0.iq.issued_per_cycle::samples     40020323                       # Number of insts issued each cycle
system.cpu0.iq.issued_per_cycle::mean        2.498872                       # Number of insts issued each cycle
system.cpu0.iq.issued_per_cycle::stdev       0.706581                       # Number of insts issued each cycle
system.cpu0.iq.issued_per_cycle::underflows            0      0.00%      0.00% # Number of insts issued each cycle
system.cpu0.iq.issued_per_cycle::0              14643      0.04%      0.04% # Number of insts issued each cycle
system.cpu0.iq.issued_per_cycle::1            4943771     12.35%     12.39% # Number of insts issued each cycle
system.cpu0.iq.issued_per_cycle::2           10123830     25.30%     37.69% # Number of insts issued each cycle
system.cpu0.iq.issued_per_cycle::3           24938079     62.31%    100.00% # Number of insts issued each cycle
system.cpu0.iq.issued_per_cycle::overflows            0      0.00%    100.00% # Number of insts issued each cycle
system.cpu0.iq.issued_per_cycle::min_value            0                       # Number of insts issued each cycle
system.cpu0.iq.issued_per_cycle::max_value            3                       # Number of insts issued each cycle
system.cpu0.iq.issued_per_cycle::total       40020323                       # Number of insts issued each cycle
system.cpu0.iq.fu_full::No_OpClass                  0                       # attempts to use FU when none available
system.cpu0.iq.fu_full::IntAlu                      0                       # attempts to use FU when none available
system.cpu0.iq.fu_full::IntMult                     0                       # attempts to use FU when none available
system.cpu0.iq.fu_full::IntDiv                      0                       # attempts to use FU when none available
system.cpu0.iq.fu_full::FloatAdd                    0                       # attempts to use FU when none available
system.cpu0.iq.fu_full::FloatCmp                    0                       # attempts to use FU when none available
system.cpu0.iq.fu_full::FloatCvt                    0                       # attempts to use FU when none available
system.cpu0.iq.fu_full::FloatMult                   0                       # attempts to use FU when none available
system.cpu0.iq.fu_full::FloatDiv                    0                       # attempts to use FU when none available
system.cpu0.iq.fu_full::FloatSqrt                   0                       # attempts to use FU when none available
system.cpu0.iq.fu_full::SimdAdd                     0                       # attempts to use FU when none available
system.cpu0.iq.fu_full::SimdAddAcc                  0                       # attempts to use FU when none available
system.cpu0.iq.fu_full::SimdAlu                     0                       # attempts to use FU when none available
system.cpu0.iq.fu_full::SimdCmp                     0                       # attempts to use FU when none available
system.cpu0.iq.fu_full::SimdCvt                     0                       # attempts to use FU when none available
system.cpu0.iq.fu_full::SimdMisc                    0                       # attempts to use FU when none available
system.cpu0.iq.fu_full::SimdMult                    0                       # attempts to use FU when none available
system.cpu0.iq.fu_full::SimdMultAcc                 0                       # attempts to use FU when none available
system.cpu0.iq.fu_full::SimdShift                   0                       # attempts to use FU when none available
system.cpu0.iq.fu_full::SimdShiftAcc                0                       # attempts to use FU when none available
system.cpu0.iq.fu_full::SimdSqrt                    0                       # attempts to use FU when none available
system.cpu0.iq.fu_full::SimdFloatAdd                0                       # attempts to use FU when none available
system.cpu0.iq.fu_full::SimdFloatAlu                0                       # attempts to use FU when none available
system.cpu0.iq.fu_full::SimdFloatCmp                0                       # attempts to use FU when none available
system.cpu0.iq.fu_full::SimdFloatCvt                0                       # attempts to use FU when none available
system.cpu0.iq.fu_full::SimdFloatDiv                0                       # attempts to use FU when none available
system.cpu0.iq.fu_full::SimdFloatMisc               0                       # attempts to use FU when none available
system.cpu0.iq.fu_full::SimdFloatMult               0                       # attempts to use FU when none available
system.cpu0.iq.fu_full::SimdFloatMultAcc            0                       # attempts to use FU when none available
system.cpu0.iq.fu_full::SimdFloatSqrt               0                       # attempts to use FU when none available
system.cpu0.iq.fu_full::MemRead                     0                       # attempts to use FU when none available
system.cpu0.iq.fu_full::MemWrite                    0                       # attempts to use FU when none available
system.cpu0.iq.fu_full::IprAccess                   0                       # attempts to use FU when none available
system.cpu0.iq.fu_full::InstPrefetch                0                       # attempts to use FU when none available
system.cpu0.iq.FU_type_0::No_OpClass                0      0.00%      0.00% # Type of FU issued
system.cpu0.iq.FU_type_0::IntAlu             40019557     40.02%     40.02% # Type of FU issued
system.cpu0.iq.FU_type_0::IntMult                   6      0.00%     40.02% # Type of FU issued
system.cpu0.iq.FU_type_0::IntDiv                    0      0.00%     40.02% # Type of FU issued
system.cpu0.iq.FU_type_0::FloatAdd                  0      0.00%     40.02% # Type of FU issued
system.cpu0.iq.FU_type_0::FloatCmp                  0      0.00%     40.02% # Type of FU issued
system.cpu0.iq.FU_type_0::FloatCvt                  0      0.00%     40.02% # Type of FU issued
system.cpu0.iq.FU_type_0::FloatMult                 0      0.00%     40.02% # Type of FU issued
system.cpu0.iq.FU_type_0::FloatDiv                  0      0.00%     40.02% # Type of FU issued
system.cpu0.iq.FU_type_0::FloatSqrt                 0      0.00%     40.02% # Type of FU issued
system.cpu0.iq.FU_type_0::SimdAdd                   0      0.00%     40.02% # Type of FU issued
system.cpu0.iq.FU_type_0::SimdAddAcc                0      0.00%     40.02% # Type of FU issued
system.cpu0.iq.FU_type_0::SimdAlu                   0      0.00%     40.02% # Type of FU issued
system.cpu0.iq.FU_type_0::SimdCmp                   0      0.00%     40.02% # Type of FU issued
system.cpu0.iq.FU_type_0::SimdCvt                   0      0.00%     40.02% # Type of FU issued
system.cpu0.iq.FU_type_0::SimdMisc                  0      0.00%     40.02% # Type of FU issued
system.cpu0.iq.FU_type_0::SimdMult                  0      0.00%     40.02% # Type of FU issued
system.cpu0.iq.FU_type_0::SimdMultAcc               0      0.00%     40.02% # Type of FU issued
system.cpu0.iq.FU_type_0::SimdShift                 0      0.00%     40.02% # Type of FU issued
system.cpu0.iq.FU_type_0::SimdShiftAcc              0      0.00%     40.02% # Type of FU issued
system.cpu0.iq.FU_type_0::SimdSqrt                  0      0.00%     40.02% # Type of FU issued
system.cpu0.iq.FU_type_0::SimdFloatAdd              0      0.00%     40.02% # Type of FU issued
system.cpu0.iq.FU_type_0::SimdFloatAlu              0      0.00%     40.02% # Type of FU issued
system.cpu0.iq.FU_type_0::SimdFloatCmp              0      0.00%     40.02% # Type of FU issued
system.cpu0.iq.FU_type_0::SimdFloatCvt              0      0.00%     40.02% # Type of FU issued
system.cpu0.iq.FU_type_0::SimdFloatDiv              0      0.00%     40.02% # Type of FU issued
system.cpu0.iq.FU_type_0::SimdFloatMisc             3      0.00%     40.02% # Type of FU issued
system.cpu0.iq.FU_type_0::SimdFloatMult             0      0.00%     40.02% # Type of FU issued
system.cpu0.iq.FU_type_0::SimdFloatMultAcc            0      0.00%     40.02% # Type of FU issued
system.cpu0.iq.FU_type_0::SimdFloatSqrt             0      0.00%     40.02% # Type of FU issued
system.cpu0.iq.FU_type_0::MemRead            39988359     39.99%     80.00% # Type of FU issued
system.cpu0.iq.FU_type_0::MemWrite           19997743     20.00%    100.00% # Type of FU issued
system.cpu0.iq.FU_type_0::IprAccess                 0      0.00%    100.00% # Type of FU issued
system.cpu0.iq.FU_type_0::InstPrefetch              0      0.00%    100.00% # Type of FU issued
system.cpu0.iq.FU_type_0::total             100005668                       # Type of FU issued
system.cpu0.iq.rate                          2.498418                       # Inst issue rate
system.cpu0.iq.fu_busy_cnt                          0                       # FU busy when requested
system.cpu0.iq.fu_busy_rate                         0                       # FU busy rate (busy events/executed inst)
system.cpu0.iq.int_inst_queue_reads         240031925                       # Number of integer instruction queue reads
system.cpu0.iq.int_inst_queue_writes        100011730                       # Number of integer instruction queue writes
system.cpu0.iq.int_inst_queue_wakeup_accesses    100004957                       # Number of integer instruction queue wakeup accesses
system.cpu0.iq.fp_inst_queue_reads                 32                       # Number of floating instruction queue reads
system.cpu0.iq.fp_inst_queue_writes                16                       # Number of floating instruction queue writes
system.cpu0.iq.fp_inst_queue_wakeup_accesses           16                       # Number of floating instruction queue wakeup accesses
system.cpu0.iq.int_alu_accesses             100005652                       # Number of integer alu accesses
system.cpu0.iq.fp_alu_accesses                     16                       # Number of floating point alu accesses
system.cpu0.iew.lsq.thread0.forwLoads        19992121                       # Number of loads that had data forwarded from stores
system.cpu0.iew.lsq.thread0.invAddrLoads            0                       # Number of loads ignored due to an invalid address
system.cpu0.iew.lsq.thread0.squashedLoads         1129                       # Number of loads squashed
system.cpu0.iew.lsq.thread0.ignoredResponses            3                       # Number of memory responses ignored because the instruction is squashed
system.cpu0.iew.lsq.thread0.memOrderViolation           91                       # Number of memory ordering violations
system.cpu0.iew.lsq.thread0.squashedStores          423                       # Number of stores squashed
system.cpu0.iew.lsq.thread0.invAddrSwpfs            0                       # Number of software prefetches ignored due to an invalid address
system.cpu0.iew.lsq.thread0.blockedLoads            0                       # Number of blocked loads due to partial load-store forwarding
system.cpu0.iew.lsq.thread0.rescheduledLoads            1                       # Number of loads that were rescheduled
system.cpu0.iew.lsq.thread0.cacheBlocked            9                       # Number of times an access to memory failed due to the cache being blocked
system.cpu0.iew.iewIdleCycles                       0                       # Number of cycles IEW is idle
system.cpu0.iew.iewSquashCycles                   456                       # Number of cycles IEW is squashing
system.cpu0.iew.iewBlockCycles                    404                       # Number of cycles IEW is blocking
system.cpu0.iew.iewUnblockCycles                  130                       # Number of cycles IEW is unblocking
system.cpu0.iew.iewDispatchedInsts          100007503                       # Number of instructions dispatched to IQ
system.cpu0.iew.iewDispSquashedInsts              214                       # Number of squashed instructions skipped by dispatch
system.cpu0.iew.iewDispLoadInsts             39988697                       # Number of dispatched load instructions
system.cpu0.iew.iewDispStoreInsts            19997926                       # Number of dispatched store instructions
system.cpu0.iew.iewDispNonSpecInsts                45                       # Number of dispatched non-speculative instructions
system.cpu0.iew.iewIQFullEvents                    11                       # Number of times the IQ has become full, causing a stall
system.cpu0.iew.iewLSQFullEvents                    0                       # Number of times the LSQ has become full, causing a stall
system.cpu0.iew.memOrderViolationEvents            91                       # Number of memory order violations
system.cpu0.iew.predictedTakenIncorrect            99                       # Number of branches that were predicted taken incorrectly
system.cpu0.iew.predictedNotTakenIncorrect          274                       # Number of branches that were predicted not taken incorrectly
system.cpu0.iew.branchMispredicts                 373                       # Number of branch mispredicts detected at execute
system.cpu0.iew.iewExecutedInsts            100005230                       # Number of executed instructions
system.cpu0.iew.iewExecLoadInsts             39988255                       # Number of load instructions executed
system.cpu0.iew.iewExecSquashedInsts              435                       # Number of squashed instructions skipped in execute
system.cpu0.iew.exec_swp                            0                       # number of swp insts executed
system.cpu0.iew.exec_nop                           16                       # number of nop insts executed
system.cpu0.iew.exec_refs                    59985871                       # number of memory reference insts executed
system.cpu0.iew.exec_branches                20002141                       # Number of branches executed
system.cpu0.iew.exec_forward_branches            4893                       # Number of forward branches executed
system.cpu0.iew.exec_backward_branches       19994916                       # Number of backward branches executed
system.cpu0.iew.exec_taken_forward_branches         2331                       # Number of forward branches executed that is taken
system.cpu0.iew.exec_nottaken_forward_branches         2562                       # Number of forward branches executed that is not taken
system.cpu0.iew.exec_taken_backward_branches     19994708                       # Number of backward branches executed that is taken
system.cpu0.iew.exec_nottaken_backward_branches          208                       # Number of backward branches executed that is not taken
system.cpu0.iew.exec_stores                  19997616                       # Number of stores executed
system.cpu0.iew.exec_rate                    2.498407                       # Inst execution rate
system.cpu0.iew.wb_sent                     100005031                       # cumulative count of insts sent to commit
system.cpu0.iew.wb_count                    100004973                       # cumulative count of insts written-back
system.cpu0.iew.wb_producers                 59998859                       # num instructions producing a value
system.cpu0.iew.wb_consumers                 60009489                       # num instructions consuming a value
system.cpu0.iew.wb_penalized                        0                       # number of instrctions required to write to 'other' IQ
system.cpu0.iew.wb_rate                      2.498401                       # insts written-back per cycle
system.cpu0.iew.wb_fanout                    0.999823                       # average fanout of values written-back
system.cpu0.iew.wb_penalized_rate                   0                       # fraction of instructions written-back that wrote to 'other' IQ
system.cpu0.commit.commitSquashedInsts           4184                       # The number of squashed insts skipped by commit
system.cpu0.commit.commitNonSpecStalls             68                       # The number of times commit has been forced to stall to communicate backwards
system.cpu0.commit.branchMispredicts              355                       # The number of times a branch was mispredicted
system.cpu0.commit.committed_per_cycle::samples     40019560                       # Number of insts commited each cycle
system.cpu0.commit.committed_per_cycle::mean     2.498861                       # Number of insts commited each cycle
system.cpu0.commit.committed_per_cycle::stdev     1.580490                       # Number of insts commited each cycle
system.cpu0.commit.committed_per_cycle::underflows            0      0.00%      0.00% # Number of insts commited each cycle
system.cpu0.commit.committed_per_cycle::0        15489      0.04%      0.04% # Number of insts commited each cycle
system.cpu0.commit.committed_per_cycle::1     20000454     49.98%     50.02% # Number of insts commited each cycle
system.cpu0.commit.committed_per_cycle::2         3292      0.01%     50.02% # Number of insts commited each cycle
system.cpu0.commit.committed_per_cycle::3      4942862     12.35%     62.37% # Number of insts commited each cycle
system.cpu0.commit.committed_per_cycle::4     10120201     25.29%     87.66% # Number of insts commited each cycle
system.cpu0.commit.committed_per_cycle::5      4936988     12.34%    100.00% # Number of insts commited each cycle
system.cpu0.commit.committed_per_cycle::6           75      0.00%    100.00% # Number of insts commited each cycle
system.cpu0.commit.committed_per_cycle::7          112      0.00%    100.00% # Number of insts commited each cycle
system.cpu0.commit.committed_per_cycle::8           87      0.00%    100.00% # Number of insts commited each cycle
system.cpu0.commit.committed_per_cycle::overflows            0      0.00%    100.00% # Number of insts commited each cycle
system.cpu0.commit.committed_per_cycle::min_value            0                       # Number of insts commited each cycle
system.cpu0.commit.committed_per_cycle::max_value            8                       # Number of insts commited each cycle
system.cpu0.commit.committed_per_cycle::total     40019560                       # Number of insts commited each cycle
system.cpu0.commit.committedInsts           100000001                       # Number of instructions committed
system.cpu0.commit.committedOps             100003298                       # Number of ops (including micro ops) committed
system.cpu0.commit.swp_count                        0                       # Number of s/w prefetches committed
system.cpu0.commit.refs                      59985058                       # Number of memory references committed
system.cpu0.commit.loads                     39987559                       # Number of loads committed
system.cpu0.commit.membars                         28                       # Number of memory barriers committed
system.cpu0.commit.branches                  20001847                       # Number of branches committed
system.cpu0.commit.fp_insts                        16                       # Number of committed floating point instructions.
system.cpu0.commit.int_insts                 80005908                       # Number of committed integer instructions.
system.cpu0.commit.function_calls                2186                       # Number of function calls committed.
system.cpu0.commit.op_class_0::No_OpClass            0      0.00%      0.00% # Class of committed instruction
system.cpu0.commit.op_class_0::IntAlu        40018231     40.02%     40.02% # Class of committed instruction
system.cpu0.commit.op_class_0::IntMult              6      0.00%     40.02% # Class of committed instruction
system.cpu0.commit.op_class_0::IntDiv               0      0.00%     40.02% # Class of committed instruction
system.cpu0.commit.op_class_0::FloatAdd             0      0.00%     40.02% # Class of committed instruction
system.cpu0.commit.op_class_0::FloatCmp             0      0.00%     40.02% # Class of committed instruction
system.cpu0.commit.op_class_0::FloatCvt             0      0.00%     40.02% # Class of committed instruction
system.cpu0.commit.op_class_0::FloatMult            0      0.00%     40.02% # Class of committed instruction
system.cpu0.commit.op_class_0::FloatDiv             0      0.00%     40.02% # Class of committed instruction
system.cpu0.commit.op_class_0::FloatSqrt            0      0.00%     40.02% # Class of committed instruction
system.cpu0.commit.op_class_0::SimdAdd              0      0.00%     40.02% # Class of committed instruction
system.cpu0.commit.op_class_0::SimdAddAcc            0      0.00%     40.02% # Class of committed instruction
system.cpu0.commit.op_class_0::SimdAlu              0      0.00%     40.02% # Class of committed instruction
system.cpu0.commit.op_class_0::SimdCmp              0      0.00%     40.02% # Class of committed instruction
system.cpu0.commit.op_class_0::SimdCvt              0      0.00%     40.02% # Class of committed instruction
system.cpu0.commit.op_class_0::SimdMisc             0      0.00%     40.02% # Class of committed instruction
system.cpu0.commit.op_class_0::SimdMult             0      0.00%     40.02% # Class of committed instruction
system.cpu0.commit.op_class_0::SimdMultAcc            0      0.00%     40.02% # Class of committed instruction
system.cpu0.commit.op_class_0::SimdShift            0      0.00%     40.02% # Class of committed instruction
system.cpu0.commit.op_class_0::SimdShiftAcc            0      0.00%     40.02% # Class of committed instruction
system.cpu0.commit.op_class_0::SimdSqrt             0      0.00%     40.02% # Class of committed instruction
system.cpu0.commit.op_class_0::SimdFloatAdd            0      0.00%     40.02% # Class of committed instruction
system.cpu0.commit.op_class_0::SimdFloatAlu            0      0.00%     40.02% # Class of committed instruction
system.cpu0.commit.op_class_0::SimdFloatCmp            0      0.00%     40.02% # Class of committed instruction
system.cpu0.commit.op_class_0::SimdFloatCvt            0      0.00%     40.02% # Class of committed instruction
system.cpu0.commit.op_class_0::SimdFloatDiv            0      0.00%     40.02% # Class of committed instruction
system.cpu0.commit.op_class_0::SimdFloatMisc            3      0.00%     40.02% # Class of committed instruction
system.cpu0.commit.op_class_0::SimdFloatMult            0      0.00%     40.02% # Class of committed instruction
system.cpu0.commit.op_class_0::SimdFloatMultAcc            0      0.00%     40.02% # Class of committed instruction
system.cpu0.commit.op_class_0::SimdFloatSqrt            0      0.00%     40.02% # Class of committed instruction
system.cpu0.commit.op_class_0::MemRead       39987559     39.99%     80.00% # Class of committed instruction
system.cpu0.commit.op_class_0::MemWrite      19997499     20.00%    100.00% # Class of committed instruction
system.cpu0.commit.op_class_0::IprAccess            0      0.00%    100.00% # Class of committed instruction
system.cpu0.commit.op_class_0::InstPrefetch            0      0.00%    100.00% # Class of committed instruction
system.cpu0.commit.op_class_0::total        100003298                       # Class of committed instruction
system.cpu0.commit.bw_lim_events                   87                       # number cycles where commit BW limit reached
system.cpu0.rob.rob_reads                   140026798                       # The number of ROB reads
system.cpu0.rob.rob_writes                  200015754                       # The number of ROB writes
system.cpu0.timesIdled                            230                       # Number of times that the entire CPU went into an idle state and unscheduled itself
system.cpu0.idleCycles                           7270                       # Total number of cycles that the CPU has spent unscheduled due to idling
system.cpu0.committedInsts                  100000001                       # Number of Instructions Simulated
system.cpu0.committedOps                    100003298                       # Number of Ops (including micro ops) Simulated
system.cpu0.cpi                              0.400276                       # CPI: Cycles Per Instruction
system.cpu0.cpi_total                        0.400276                       # CPI: Total CPI of All Threads
system.cpu0.ipc                              2.498277                       # IPC: Instructions Per Cycle
system.cpu0.ipc_total                        2.498277                       # IPC: Total IPC of All Threads
system.cpu0.int_regfile_reads               100003695                       # number of integer regfile reads
system.cpu0.int_regfile_writes               40010397                       # number of integer regfile writes
system.cpu0.fp_regfile_reads                      336                       # number of floating regfile reads
system.cpu0.cc_regfile_reads                419979630                       # number of cc regfile reads
system.cpu0.cc_regfile_writes                59995673                       # number of cc regfile writes
system.cpu0.misc_regfile_reads               60980308                       # number of misc regfile reads
system.cpu0.misc_regfile_writes                    56                       # number of misc regfile writes
system.cpu0.dcache.tags.replacements              591                       # number of replacements
system.cpu0.dcache.tags.tagsinuse           79.179622                       # Cycle average of tags in use
system.cpu0.dcache.tags.total_refs           39987556                       # Total number of references to valid blocks.
system.cpu0.dcache.tags.sampled_refs              648                       # Sample count of references to valid blocks.
system.cpu0.dcache.tags.avg_refs         61709.191358                       # Average number of references to valid blocks.
system.cpu0.dcache.tags.warmup_cycle         25970000                       # Cycle when the warmup percentage was hit.
system.cpu0.dcache.tags.occ_blocks::cpu0.data    79.179622                       # Average occupied blocks per requestor
system.cpu0.dcache.tags.occ_percent::cpu0.data     0.154648                       # Average percentage of cache occupancy
system.cpu0.dcache.tags.occ_percent::total     0.154648                       # Average percentage of cache occupancy
system.cpu0.dcache.tags.occ_task_id_blocks::1024           57                       # Occupied blocks per task id
system.cpu0.dcache.tags.age_task_id_blocks_1024::4           57                       # Occupied blocks per task id
system.cpu0.dcache.tags.occ_task_id_percent::1024     0.111328                       # Percentage of cache occupancy per task id
system.cpu0.dcache.tags.tag_accesses         79988027                       # Number of tag accesses
system.cpu0.dcache.tags.data_accesses        79988027                       # Number of data accesses
system.cpu0.dcache.ReadReq_hits::cpu0.data     19995766                       # number of ReadReq hits
system.cpu0.dcache.ReadReq_hits::total       19995766                       # number of ReadReq hits
system.cpu0.dcache.WriteReq_hits::cpu0.data     19992997                       # number of WriteReq hits
system.cpu0.dcache.WriteReq_hits::total      19992997                       # number of WriteReq hits
system.cpu0.dcache.LoadLockedReq_hits::cpu0.data           23                       # number of LoadLockedReq hits
system.cpu0.dcache.LoadLockedReq_hits::total           23                       # number of LoadLockedReq hits
system.cpu0.dcache.StoreCondReq_hits::cpu0.data           27                       # number of StoreCondReq hits
system.cpu0.dcache.StoreCondReq_hits::total           27                       # number of StoreCondReq hits
system.cpu0.dcache.demand_hits::cpu0.data     39988763                       # number of demand (read+write) hits
system.cpu0.dcache.demand_hits::total        39988763                       # number of demand (read+write) hits
system.cpu0.dcache.overall_hits::cpu0.data     39988763                       # number of overall hits
system.cpu0.dcache.overall_hits::total       39988763                       # number of overall hits
system.cpu0.dcache.ReadReq_misses::cpu0.data          213                       # number of ReadReq misses
system.cpu0.dcache.ReadReq_misses::total          213                       # number of ReadReq misses
system.cpu0.dcache.WriteReq_misses::cpu0.data         4431                       # number of WriteReq misses
system.cpu0.dcache.WriteReq_misses::total         4431                       # number of WriteReq misses
system.cpu0.dcache.LoadLockedReq_misses::cpu0.data            5                       # number of LoadLockedReq misses
system.cpu0.dcache.LoadLockedReq_misses::total            5                       # number of LoadLockedReq misses
system.cpu0.dcache.demand_misses::cpu0.data         4644                       # number of demand (read+write) misses
system.cpu0.dcache.demand_misses::total          4644                       # number of demand (read+write) misses
system.cpu0.dcache.overall_misses::cpu0.data         4644                       # number of overall misses
system.cpu0.dcache.overall_misses::total         4644                       # number of overall misses
system.cpu0.dcache.ReadReq_miss_latency::cpu0.data      8865987                       # number of ReadReq miss cycles
system.cpu0.dcache.ReadReq_miss_latency::total      8865987                       # number of ReadReq miss cycles
system.cpu0.dcache.WriteReq_miss_latency::cpu0.data    224525499                       # number of WriteReq miss cycles
system.cpu0.dcache.WriteReq_miss_latency::total    224525499                       # number of WriteReq miss cycles
system.cpu0.dcache.LoadLockedReq_miss_latency::cpu0.data       171500                       # number of LoadLockedReq miss cycles
system.cpu0.dcache.LoadLockedReq_miss_latency::total       171500                       # number of LoadLockedReq miss cycles
system.cpu0.dcache.demand_miss_latency::cpu0.data    233391486                       # number of demand (read+write) miss cycles
system.cpu0.dcache.demand_miss_latency::total    233391486                       # number of demand (read+write) miss cycles
system.cpu0.dcache.overall_miss_latency::cpu0.data    233391486                       # number of overall miss cycles
system.cpu0.dcache.overall_miss_latency::total    233391486                       # number of overall miss cycles
system.cpu0.dcache.ReadReq_accesses::cpu0.data     19995979                       # number of ReadReq accesses(hits+misses)
system.cpu0.dcache.ReadReq_accesses::total     19995979                       # number of ReadReq accesses(hits+misses)
system.cpu0.dcache.WriteReq_accesses::cpu0.data     19997428                       # number of WriteReq accesses(hits+misses)
system.cpu0.dcache.WriteReq_accesses::total     19997428                       # number of WriteReq accesses(hits+misses)
system.cpu0.dcache.LoadLockedReq_accesses::cpu0.data           28                       # number of LoadLockedReq accesses(hits+misses)
system.cpu0.dcache.LoadLockedReq_accesses::total           28                       # number of LoadLockedReq accesses(hits+misses)
system.cpu0.dcache.StoreCondReq_accesses::cpu0.data           27                       # number of StoreCondReq accesses(hits+misses)
system.cpu0.dcache.StoreCondReq_accesses::total           27                       # number of StoreCondReq accesses(hits+misses)
system.cpu0.dcache.demand_accesses::cpu0.data     39993407                       # number of demand (read+write) accesses
system.cpu0.dcache.demand_accesses::total     39993407                       # number of demand (read+write) accesses
system.cpu0.dcache.overall_accesses::cpu0.data     39993407                       # number of overall (read+write) accesses
system.cpu0.dcache.overall_accesses::total     39993407                       # number of overall (read+write) accesses
system.cpu0.dcache.ReadReq_miss_rate::cpu0.data     0.000011                       # miss rate for ReadReq accesses
system.cpu0.dcache.ReadReq_miss_rate::total     0.000011                       # miss rate for ReadReq accesses
system.cpu0.dcache.WriteReq_miss_rate::cpu0.data     0.000222                       # miss rate for WriteReq accesses
system.cpu0.dcache.WriteReq_miss_rate::total     0.000222                       # miss rate for WriteReq accesses
system.cpu0.dcache.LoadLockedReq_miss_rate::cpu0.data     0.178571                       # miss rate for LoadLockedReq accesses
system.cpu0.dcache.LoadLockedReq_miss_rate::total     0.178571                       # miss rate for LoadLockedReq accesses
system.cpu0.dcache.demand_miss_rate::cpu0.data     0.000116                       # miss rate for demand accesses
system.cpu0.dcache.demand_miss_rate::total     0.000116                       # miss rate for demand accesses
system.cpu0.dcache.overall_miss_rate::cpu0.data     0.000116                       # miss rate for overall accesses
system.cpu0.dcache.overall_miss_rate::total     0.000116                       # miss rate for overall accesses
system.cpu0.dcache.ReadReq_avg_miss_latency::cpu0.data 41624.352113                       # average ReadReq miss latency
system.cpu0.dcache.ReadReq_avg_miss_latency::total 41624.352113                       # average ReadReq miss latency
system.cpu0.dcache.WriteReq_avg_miss_latency::cpu0.data 50671.518619                       # average WriteReq miss latency
system.cpu0.dcache.WriteReq_avg_miss_latency::total 50671.518619                       # average WriteReq miss latency
system.cpu0.dcache.LoadLockedReq_avg_miss_latency::cpu0.data        34300                       # average LoadLockedReq miss latency
system.cpu0.dcache.LoadLockedReq_avg_miss_latency::total        34300                       # average LoadLockedReq miss latency
system.cpu0.dcache.demand_avg_miss_latency::cpu0.data 50256.564599                       # average overall miss latency
system.cpu0.dcache.demand_avg_miss_latency::total 50256.564599                       # average overall miss latency
system.cpu0.dcache.overall_avg_miss_latency::cpu0.data 50256.564599                       # average overall miss latency
system.cpu0.dcache.overall_avg_miss_latency::total 50256.564599                       # average overall miss latency
system.cpu0.dcache.blocked_cycles::no_mshrs           72                       # number of cycles access was blocked
system.cpu0.dcache.blocked_cycles::no_targets            0                       # number of cycles access was blocked
system.cpu0.dcache.blocked::no_mshrs                7                       # number of cycles access was blocked
system.cpu0.dcache.blocked::no_targets              0                       # number of cycles access was blocked
system.cpu0.dcache.avg_blocked_cycles::no_mshrs    10.285714                       # average number of cycles each access was blocked
system.cpu0.dcache.avg_blocked_cycles::no_targets          nan                       # average number of cycles each access was blocked
system.cpu0.dcache.fast_writes                      0                       # number of fast writes performed
system.cpu0.dcache.cache_copies                     0                       # number of cache copies performed
system.cpu0.dcache.writebacks::writebacks          514                       # number of writebacks
system.cpu0.dcache.writebacks::total              514                       # number of writebacks
system.cpu0.dcache.ReadReq_mshr_hits::cpu0.data           66                       # number of ReadReq MSHR hits
system.cpu0.dcache.ReadReq_mshr_hits::total           66                       # number of ReadReq MSHR hits
system.cpu0.dcache.WriteReq_mshr_hits::cpu0.data         3475                       # number of WriteReq MSHR hits
system.cpu0.dcache.WriteReq_mshr_hits::total         3475                       # number of WriteReq MSHR hits
system.cpu0.dcache.LoadLockedReq_mshr_hits::cpu0.data            5                       # number of LoadLockedReq MSHR hits
system.cpu0.dcache.LoadLockedReq_mshr_hits::total            5                       # number of LoadLockedReq MSHR hits
system.cpu0.dcache.demand_mshr_hits::cpu0.data         3541                       # number of demand (read+write) MSHR hits
system.cpu0.dcache.demand_mshr_hits::total         3541                       # number of demand (read+write) MSHR hits
system.cpu0.dcache.overall_mshr_hits::cpu0.data         3541                       # number of overall MSHR hits
system.cpu0.dcache.overall_mshr_hits::total         3541                       # number of overall MSHR hits
system.cpu0.dcache.ReadReq_mshr_misses::cpu0.data          147                       # number of ReadReq MSHR misses
system.cpu0.dcache.ReadReq_mshr_misses::total          147                       # number of ReadReq MSHR misses
system.cpu0.dcache.WriteReq_mshr_misses::cpu0.data          956                       # number of WriteReq MSHR misses
system.cpu0.dcache.WriteReq_mshr_misses::total          956                       # number of WriteReq MSHR misses
system.cpu0.dcache.demand_mshr_misses::cpu0.data         1103                       # number of demand (read+write) MSHR misses
system.cpu0.dcache.demand_mshr_misses::total         1103                       # number of demand (read+write) MSHR misses
system.cpu0.dcache.overall_mshr_misses::cpu0.data         1103                       # number of overall MSHR misses
system.cpu0.dcache.overall_mshr_misses::total         1103                       # number of overall MSHR misses
system.cpu0.dcache.ReadReq_mshr_miss_latency::cpu0.data      5991509                       # number of ReadReq MSHR miss cycles
system.cpu0.dcache.ReadReq_mshr_miss_latency::total      5991509                       # number of ReadReq MSHR miss cycles
system.cpu0.dcache.WriteReq_mshr_miss_latency::cpu0.data     52342500                       # number of WriteReq MSHR miss cycles
system.cpu0.dcache.WriteReq_mshr_miss_latency::total     52342500                       # number of WriteReq MSHR miss cycles
system.cpu0.dcache.demand_mshr_miss_latency::cpu0.data     58334009                       # number of demand (read+write) MSHR miss cycles
system.cpu0.dcache.demand_mshr_miss_latency::total     58334009                       # number of demand (read+write) MSHR miss cycles
system.cpu0.dcache.overall_mshr_miss_latency::cpu0.data     58334009                       # number of overall MSHR miss cycles
system.cpu0.dcache.overall_mshr_miss_latency::total     58334009                       # number of overall MSHR miss cycles
system.cpu0.dcache.ReadReq_mshr_miss_rate::cpu0.data     0.000007                       # mshr miss rate for ReadReq accesses
system.cpu0.dcache.ReadReq_mshr_miss_rate::total     0.000007                       # mshr miss rate for ReadReq accesses
system.cpu0.dcache.WriteReq_mshr_miss_rate::cpu0.data     0.000048                       # mshr miss rate for WriteReq accesses
system.cpu0.dcache.WriteReq_mshr_miss_rate::total     0.000048                       # mshr miss rate for WriteReq accesses
system.cpu0.dcache.demand_mshr_miss_rate::cpu0.data     0.000028                       # mshr miss rate for demand accesses
system.cpu0.dcache.demand_mshr_miss_rate::total     0.000028                       # mshr miss rate for demand accesses
system.cpu0.dcache.overall_mshr_miss_rate::cpu0.data     0.000028                       # mshr miss rate for overall accesses
system.cpu0.dcache.overall_mshr_miss_rate::total     0.000028                       # mshr miss rate for overall accesses
system.cpu0.dcache.ReadReq_avg_mshr_miss_latency::cpu0.data 40758.564626                       # average ReadReq mshr miss latency
system.cpu0.dcache.ReadReq_avg_mshr_miss_latency::total 40758.564626                       # average ReadReq mshr miss latency
system.cpu0.dcache.WriteReq_avg_mshr_miss_latency::cpu0.data 54751.569038                       # average WriteReq mshr miss latency
system.cpu0.dcache.WriteReq_avg_mshr_miss_latency::total 54751.569038                       # average WriteReq mshr miss latency
system.cpu0.dcache.demand_avg_mshr_miss_latency::cpu0.data 52886.680870                       # average overall mshr miss latency
system.cpu0.dcache.demand_avg_mshr_miss_latency::total 52886.680870                       # average overall mshr miss latency
system.cpu0.dcache.overall_avg_mshr_miss_latency::cpu0.data 52886.680870                       # average overall mshr miss latency
system.cpu0.dcache.overall_avg_mshr_miss_latency::total 52886.680870                       # average overall mshr miss latency
system.cpu0.dcache.no_allocate_misses               0                       # Number of misses that were no-allocate
system.cpu0.icache.tags.replacements               59                       # number of replacements
system.cpu0.icache.tags.tagsinuse          292.875986                       # Cycle average of tags in use
system.cpu0.icache.tags.total_refs               6074                       # Total number of references to valid blocks.
system.cpu0.icache.tags.sampled_refs              352                       # Sample count of references to valid blocks.
system.cpu0.icache.tags.avg_refs            17.255682                       # Average number of references to valid blocks.
system.cpu0.icache.tags.warmup_cycle                0                       # Cycle when the warmup percentage was hit.
system.cpu0.icache.tags.occ_blocks::cpu0.inst   292.875986                       # Average occupied blocks per requestor
system.cpu0.icache.tags.occ_percent::cpu0.inst     0.572023                       # Average percentage of cache occupancy
system.cpu0.icache.tags.occ_percent::total     0.572023                       # Average percentage of cache occupancy
system.cpu0.icache.tags.occ_task_id_blocks::1024          293                       # Occupied blocks per task id
system.cpu0.icache.tags.age_task_id_blocks_1024::4          293                       # Occupied blocks per task id
system.cpu0.icache.tags.occ_task_id_percent::1024     0.572266                       # Percentage of cache occupancy per task id
system.cpu0.icache.tags.tag_accesses            13326                       # Number of tag accesses
system.cpu0.icache.tags.data_accesses           13326                       # Number of data accesses
system.cpu0.icache.ReadReq_hits::cpu0.inst         6074                       # number of ReadReq hits
system.cpu0.icache.ReadReq_hits::total           6074                       # number of ReadReq hits
system.cpu0.icache.demand_hits::cpu0.inst         6074                       # number of demand (read+write) hits
system.cpu0.icache.demand_hits::total            6074                       # number of demand (read+write) hits
system.cpu0.icache.overall_hits::cpu0.inst         6074                       # number of overall hits
system.cpu0.icache.overall_hits::total           6074                       # number of overall hits
system.cpu0.icache.ReadReq_misses::cpu0.inst          413                       # number of ReadReq misses
system.cpu0.icache.ReadReq_misses::total          413                       # number of ReadReq misses
system.cpu0.icache.demand_misses::cpu0.inst          413                       # number of demand (read+write) misses
system.cpu0.icache.demand_misses::total           413                       # number of demand (read+write) misses
system.cpu0.icache.overall_misses::cpu0.inst          413                       # number of overall misses
system.cpu0.icache.overall_misses::total          413                       # number of overall misses
system.cpu0.icache.ReadReq_miss_latency::cpu0.inst     21593999                       # number of ReadReq miss cycles
system.cpu0.icache.ReadReq_miss_latency::total     21593999                       # number of ReadReq miss cycles
system.cpu0.icache.demand_miss_latency::cpu0.inst     21593999                       # number of demand (read+write) miss cycles
system.cpu0.icache.demand_miss_latency::total     21593999                       # number of demand (read+write) miss cycles
system.cpu0.icache.overall_miss_latency::cpu0.inst     21593999                       # number of overall miss cycles
system.cpu0.icache.overall_miss_latency::total     21593999                       # number of overall miss cycles
system.cpu0.icache.ReadReq_accesses::cpu0.inst         6487                       # number of ReadReq accesses(hits+misses)
system.cpu0.icache.ReadReq_accesses::total         6487                       # number of ReadReq accesses(hits+misses)
system.cpu0.icache.demand_accesses::cpu0.inst         6487                       # number of demand (read+write) accesses
system.cpu0.icache.demand_accesses::total         6487                       # number of demand (read+write) accesses
system.cpu0.icache.overall_accesses::cpu0.inst         6487                       # number of overall (read+write) accesses
system.cpu0.icache.overall_accesses::total         6487                       # number of overall (read+write) accesses
system.cpu0.icache.ReadReq_miss_rate::cpu0.inst     0.063666                       # miss rate for ReadReq accesses
system.cpu0.icache.ReadReq_miss_rate::total     0.063666                       # miss rate for ReadReq accesses
system.cpu0.icache.demand_miss_rate::cpu0.inst     0.063666                       # miss rate for demand accesses
system.cpu0.icache.demand_miss_rate::total     0.063666                       # miss rate for demand accesses
system.cpu0.icache.overall_miss_rate::cpu0.inst     0.063666                       # miss rate for overall accesses
system.cpu0.icache.overall_miss_rate::total     0.063666                       # miss rate for overall accesses
system.cpu0.icache.ReadReq_avg_miss_latency::cpu0.inst 52285.711864                       # average ReadReq miss latency
system.cpu0.icache.ReadReq_avg_miss_latency::total 52285.711864                       # average ReadReq miss latency
system.cpu0.icache.demand_avg_miss_latency::cpu0.inst 52285.711864                       # average overall miss latency
system.cpu0.icache.demand_avg_miss_latency::total 52285.711864                       # average overall miss latency
system.cpu0.icache.overall_avg_miss_latency::cpu0.inst 52285.711864                       # average overall miss latency
system.cpu0.icache.overall_avg_miss_latency::total 52285.711864                       # average overall miss latency
system.cpu0.icache.blocked_cycles::no_mshrs           18                       # number of cycles access was blocked
system.cpu0.icache.blocked_cycles::no_targets            0                       # number of cycles access was blocked
system.cpu0.icache.blocked::no_mshrs                2                       # number of cycles access was blocked
system.cpu0.icache.blocked::no_targets              0                       # number of cycles access was blocked
system.cpu0.icache.avg_blocked_cycles::no_mshrs            9                       # average number of cycles each access was blocked
system.cpu0.icache.avg_blocked_cycles::no_targets          nan                       # average number of cycles each access was blocked
system.cpu0.icache.fast_writes                      0                       # number of fast writes performed
system.cpu0.icache.cache_copies                     0                       # number of cache copies performed
system.cpu0.icache.ReadReq_mshr_hits::cpu0.inst           61                       # number of ReadReq MSHR hits
system.cpu0.icache.ReadReq_mshr_hits::total           61                       # number of ReadReq MSHR hits
system.cpu0.icache.demand_mshr_hits::cpu0.inst           61                       # number of demand (read+write) MSHR hits
system.cpu0.icache.demand_mshr_hits::total           61                       # number of demand (read+write) MSHR hits
system.cpu0.icache.overall_mshr_hits::cpu0.inst           61                       # number of overall MSHR hits
system.cpu0.icache.overall_mshr_hits::total           61                       # number of overall MSHR hits
system.cpu0.icache.ReadReq_mshr_misses::cpu0.inst          352                       # number of ReadReq MSHR misses
system.cpu0.icache.ReadReq_mshr_misses::total          352                       # number of ReadReq MSHR misses
system.cpu0.icache.demand_mshr_misses::cpu0.inst          352                       # number of demand (read+write) MSHR misses
system.cpu0.icache.demand_mshr_misses::total          352                       # number of demand (read+write) MSHR misses
system.cpu0.icache.overall_mshr_misses::cpu0.inst          352                       # number of overall MSHR misses
system.cpu0.icache.overall_mshr_misses::total          352                       # number of overall MSHR misses
system.cpu0.icache.ReadReq_mshr_miss_latency::cpu0.inst     18462001                       # number of ReadReq MSHR miss cycles
system.cpu0.icache.ReadReq_mshr_miss_latency::total     18462001                       # number of ReadReq MSHR miss cycles
system.cpu0.icache.demand_mshr_miss_latency::cpu0.inst     18462001                       # number of demand (read+write) MSHR miss cycles
system.cpu0.icache.demand_mshr_miss_latency::total     18462001                       # number of demand (read+write) MSHR miss cycles
system.cpu0.icache.overall_mshr_miss_latency::cpu0.inst     18462001                       # number of overall MSHR miss cycles
system.cpu0.icache.overall_mshr_miss_latency::total     18462001                       # number of overall MSHR miss cycles
system.cpu0.icache.ReadReq_mshr_miss_rate::cpu0.inst     0.054262                       # mshr miss rate for ReadReq accesses
system.cpu0.icache.ReadReq_mshr_miss_rate::total     0.054262                       # mshr miss rate for ReadReq accesses
system.cpu0.icache.demand_mshr_miss_rate::cpu0.inst     0.054262                       # mshr miss rate for demand accesses
system.cpu0.icache.demand_mshr_miss_rate::total     0.054262                       # mshr miss rate for demand accesses
system.cpu0.icache.overall_mshr_miss_rate::cpu0.inst     0.054262                       # mshr miss rate for overall accesses
system.cpu0.icache.overall_mshr_miss_rate::total     0.054262                       # mshr miss rate for overall accesses
system.cpu0.icache.ReadReq_avg_mshr_miss_latency::cpu0.inst 52448.866477                       # average ReadReq mshr miss latency
system.cpu0.icache.ReadReq_avg_mshr_miss_latency::total 52448.866477                       # average ReadReq mshr miss latency
system.cpu0.icache.demand_avg_mshr_miss_latency::cpu0.inst 52448.866477                       # average overall mshr miss latency
system.cpu0.icache.demand_avg_mshr_miss_latency::total 52448.866477                       # average overall mshr miss latency
[...]
system.l2.ReadReq_mshr_miss_latency::total     41069000                       # number of ReadReq MSHR miss cycles
system.l2.UpgradeReq_mshr_miss_latency::cpu1.data    943610482                       # number of UpgradeReq MSHR miss cycles
system.l2.UpgradeReq_mshr_miss_latency::cpu2.data   1262025390                       # number of UpgradeReq MSHR miss cycles
system.l2.UpgradeReq_mshr_miss_latency::total   2205635872                       # number of UpgradeReq MSHR miss cycles
system.l2.SCUpgradeReq_mshr_miss_latency::cpu1.data    687853348                       # number of SCUpgradeReq MSHR miss cycles
system.l2.SCUpgradeReq_mshr_miss_latency::cpu2.data    853994584                       # number of SCUpgradeReq MSHR miss cycles
system.l2.SCUpgradeReq_mshr_miss_latency::total   1541847932                       # number of SCUpgradeReq MSHR miss cycles
system.l2.ReadExReq_mshr_miss_latency::cpu0.data     38499000                       # number of ReadExReq MSHR miss cycles
system.l2.ReadExReq_mshr_miss_latency::cpu1.data     56872000                       # number of ReadExReq MSHR miss cycles
system.l2.ReadExReq_mshr_miss_latency::cpu2.data     57304500                       # number of ReadExReq MSHR miss cycles
system.l2.ReadExReq_mshr_miss_latency::total    152675500                       # number of ReadExReq MSHR miss cycles
system.l2.demand_mshr_miss_latency::cpu0.inst     13394000                       # number of demand (read+write) MSHR miss cycles
system.l2.demand_mshr_miss_latency::cpu0.data     42142000                       # number of demand (read+write) MSHR miss cycles
system.l2.demand_mshr_miss_latency::cpu1.inst      6018500                       # number of demand (read+write) MSHR miss cycles
system.l2.demand_mshr_miss_latency::cpu1.data     62427000                       # number of demand (read+write) MSHR miss cycles
system.l2.demand_mshr_miss_latency::cpu2.inst      6570500                       # number of demand (read+write) MSHR miss cycles
system.l2.demand_mshr_miss_latency::cpu2.data     63192500                       # number of demand (read+write) MSHR miss cycles
system.l2.demand_mshr_miss_latency::total    193744500                       # number of demand (read+write) MSHR miss cycles
system.l2.overall_mshr_miss_latency::cpu0.inst     13394000                       # number of overall MSHR miss cycles
system.l2.overall_mshr_miss_latency::cpu0.data     42142000                       # number of overall MSHR miss cycles
system.l2.overall_mshr_miss_latency::cpu1.inst      6018500                       # number of overall MSHR miss cycles
system.l2.overall_mshr_miss_latency::cpu1.data     62427000                       # number of overall MSHR miss cycles
system.l2.overall_mshr_miss_latency::cpu2.inst      6570500                       # number of overall MSHR miss cycles
system.l2.overall_mshr_miss_latency::cpu2.data     63192500                       # number of overall MSHR miss cycles
system.l2.overall_mshr_miss_latency::total    193744500                       # number of overall MSHR miss cycles
system.l2.ReadReq_mshr_miss_rate::cpu0.inst     0.926136                       # mshr miss rate for ReadReq accesses
system.l2.ReadReq_mshr_miss_rate::cpu0.data     0.585034                       # mshr miss rate for ReadReq accesses
system.l2.ReadReq_mshr_miss_rate::cpu1.inst     0.054978                       # mshr miss rate for ReadReq accesses
system.l2.ReadReq_mshr_miss_rate::cpu1.data     0.000799                       # mshr miss rate for ReadReq accesses
system.l2.ReadReq_mshr_miss_rate::cpu2.inst     0.088510                       # mshr miss rate for ReadReq accesses
system.l2.ReadReq_mshr_miss_rate::cpu2.data     0.000819                       # mshr miss rate for ReadReq accesses
system.l2.ReadReq_mshr_miss_rate::total      0.002836                       # mshr miss rate for ReadReq accesses
system.l2.UpgradeReq_mshr_miss_rate::cpu1.data     0.998798                       # mshr miss rate for UpgradeReq accesses
system.l2.UpgradeReq_mshr_miss_rate::cpu2.data     0.997722                       # mshr miss rate for UpgradeReq accesses
system.l2.UpgradeReq_mshr_miss_rate::total     0.998182                       # mshr miss rate for UpgradeReq accesses
system.l2.SCUpgradeReq_mshr_miss_rate::cpu1.data            1                       # mshr miss rate for SCUpgradeReq accesses
system.l2.SCUpgradeReq_mshr_miss_rate::cpu2.data     0.999905                       # mshr miss rate for SCUpgradeReq accesses
system.l2.SCUpgradeReq_mshr_miss_rate::total     0.999947                       # mshr miss rate for SCUpgradeReq accesses
system.l2.ReadExReq_mshr_miss_rate::cpu0.data     0.992678                       # mshr miss rate for ReadExReq accesses
system.l2.ReadExReq_mshr_miss_rate::cpu1.data     0.927249                       # mshr miss rate for ReadExReq accesses
system.l2.ReadExReq_mshr_miss_rate::cpu2.data     0.987430                       # mshr miss rate for ReadExReq accesses
system.l2.ReadExReq_mshr_miss_rate::total     0.965385                       # mshr miss rate for ReadExReq accesses
system.l2.demand_mshr_miss_rate::cpu0.inst     0.926136                       # mshr miss rate for demand accesses
system.l2.demand_mshr_miss_rate::cpu0.data     0.938350                       # mshr miss rate for demand accesses
system.l2.demand_mshr_miss_rate::cpu1.inst     0.054978                       # mshr miss rate for demand accesses
system.l2.demand_mshr_miss_rate::cpu1.data     0.008893                       # mshr miss rate for demand accesses
system.l2.demand_mshr_miss_rate::cpu2.inst     0.088510                       # mshr miss rate for demand accesses
system.l2.demand_mshr_miss_rate::cpu2.data     0.008733                       # mshr miss rate for demand accesses
system.l2.demand_mshr_miss_rate::total       0.013335                       # mshr miss rate for demand accesses
system.l2.overall_mshr_miss_rate::cpu0.inst     0.926136                       # mshr miss rate for overall accesses
system.l2.overall_mshr_miss_rate::cpu0.data     0.938350                       # mshr miss rate for overall accesses
system.l2.overall_mshr_miss_rate::cpu1.inst     0.054978                       # mshr miss rate for overall accesses
system.l2.overall_mshr_miss_rate::cpu1.data     0.008893                       # mshr miss rate for overall accesses
system.l2.overall_mshr_miss_rate::cpu2.inst     0.088510                       # mshr miss rate for overall accesses
system.l2.overall_mshr_miss_rate::cpu2.data     0.008733                       # mshr miss rate for overall accesses
system.l2.overall_mshr_miss_rate::total      0.013335                       # mshr miss rate for overall accesses
system.l2.ReadReq_avg_mshr_miss_latency::cpu0.inst 41085.889571                       # average ReadReq mshr miss latency
system.l2.ReadReq_avg_mshr_miss_latency::cpu0.data 42360.465116                       # average ReadReq mshr miss latency
system.l2.ReadReq_avg_mshr_miss_latency::cpu1.inst 40665.540541                       # average ReadReq mshr miss latency
system.l2.ReadReq_avg_mshr_miss_latency::cpu1.data 40547.445255                       # average ReadReq mshr miss latency
system.l2.ReadReq_avg_mshr_miss_latency::cpu2.inst 40810.559006                       # average ReadReq mshr miss latency
system.l2.ReadReq_avg_mshr_miss_latency::cpu2.data 40606.896552                       # average ReadReq mshr miss latency
system.l2.ReadReq_avg_mshr_miss_latency::total 40946.161515                       # average ReadReq mshr miss latency
system.l2.UpgradeReq_avg_mshr_miss_latency::cpu1.data 40554.000430                       # average UpgradeReq mshr miss latency
system.l2.UpgradeReq_avg_mshr_miss_latency::cpu2.data 40590.035701                       # average UpgradeReq mshr miss latency
system.l2.UpgradeReq_avg_mshr_miss_latency::total 40574.611332                       # average UpgradeReq mshr miss latency
system.l2.SCUpgradeReq_avg_mshr_miss_latency::cpu1.data 40519.165174                       # average SCUpgradeReq mshr miss latency
system.l2.SCUpgradeReq_avg_mshr_miss_latency::cpu2.data 40521.688446                       # average SCUpgradeReq mshr miss latency
system.l2.SCUpgradeReq_avg_mshr_miss_latency::total 40520.562718                       # average SCUpgradeReq mshr miss latency
system.l2.ReadExReq_avg_mshr_miss_latency::cpu0.data 40567.966280                       # average ReadExReq mshr miss latency
system.l2.ReadExReq_avg_mshr_miss_latency::cpu1.data 40564.907275                       # average ReadExReq mshr miss latency
system.l2.ReadExReq_avg_mshr_miss_latency::cpu2.data 40526.520509                       # average ReadExReq mshr miss latency
system.l2.ReadExReq_avg_mshr_miss_latency::total 40551.261620                       # average ReadExReq mshr miss latency
system.l2.demand_avg_mshr_miss_latency::cpu0.inst 41085.889571                       # average overall mshr miss latency
system.l2.demand_avg_mshr_miss_latency::cpu0.data 40716.908213                       # average overall mshr miss latency
system.l2.demand_avg_mshr_miss_latency::cpu1.inst 40665.540541                       # average overall mshr miss latency
system.l2.demand_avg_mshr_miss_latency::cpu1.data 40563.352827                       # average overall mshr miss latency
system.l2.demand_avg_mshr_miss_latency::cpu2.inst 40810.559006                       # average overall mshr miss latency
system.l2.demand_avg_mshr_miss_latency::cpu2.data 40533.996151                       # average overall mshr miss latency
system.l2.demand_avg_mshr_miss_latency::total 40634.333054                       # average overall mshr miss latency
system.l2.overall_avg_mshr_miss_latency::cpu0.inst 41085.889571                       # average overall mshr miss latency
system.l2.overall_avg_mshr_miss_latency::cpu0.data 40716.908213                       # average overall mshr miss latency
system.l2.overall_avg_mshr_miss_latency::cpu1.inst 40665.540541                       # average overall mshr miss latency
system.l2.overall_avg_mshr_miss_latency::cpu1.data 40563.352827                       # average overall mshr miss latency
system.l2.overall_avg_mshr_miss_latency::cpu2.inst 40810.559006                       # average overall mshr miss latency
system.l2.overall_avg_mshr_miss_latency::cpu2.data 40533.996151                       # average overall mshr miss latency
system.l2.overall_avg_mshr_miss_latency::total 40634.333054                       # average overall mshr miss latency
system.l2.no_allocate_misses                        0                       # Number of misses that were no-allocate
system.membus.trans_dist::ReadReq                1003                       # Transaction distribution
system.membus.trans_dist::ReadResp               1003                       # Transaction distribution
system.membus.trans_dist::UpgradeReq            56665                       # Transaction distribution
system.membus.trans_dist::SCUpgradeReq         247849                       # Transaction distribution
system.membus.trans_dist::UpgradeResp           92411                       # Transaction distribution
system.membus.trans_dist::ReadExReq              3765                       # Transaction distribution
system.membus.trans_dist::ReadExResp             3765                       # Transaction distribution
system.membus.pkt_count_system.l2.mem_side::system.physmem.port       406461                       # Packet count per connected master and slave (bytes)
system.membus.pkt_count::total                 406461                       # Packet count per connected master and slave (bytes)
system.membus.pkt_size_system.l2.mem_side::system.physmem.port       305152                       # Cumulative packet size per connected master and slave (bytes)
system.membus.pkt_size::total                  305152                       # Cumulative packet size per connected master and slave (bytes)
system.membus.snoops                           212103                       # Total snoops (count)
system.membus.snoop_fanout::samples            309444                       # Request fanout histogram
system.membus.snoop_fanout::mean                    0                       # Request fanout histogram
system.membus.snoop_fanout::stdev                   0                       # Request fanout histogram
system.membus.snoop_fanout::underflows              0      0.00%      0.00% # Request fanout histogram
system.membus.snoop_fanout::0                  309444    100.00%    100.00% # Request fanout histogram
system.membus.snoop_fanout::1                       0      0.00%    100.00% # Request fanout histogram
system.membus.snoop_fanout::overflows               0      0.00%    100.00% # Request fanout histogram
system.membus.snoop_fanout::min_value               0                       # Request fanout histogram
system.membus.snoop_fanout::max_value               0                       # Request fanout histogram
system.membus.snoop_fanout::total              309444                       # Request fanout histogram
system.membus.reqLayer0.occupancy           143551936                       # Layer occupancy (ticks)
system.membus.reqLayer0.utilization               0.4                       # Layer utilization (%)
system.membus.respLayer1.occupancy          162307848                       # Layer occupancy (ticks)
system.membus.respLayer1.utilization              0.4                       # Layer utilization (%)
system.tol2bus.trans_dist::ReadReq             699850                       # Transaction distribution
system.tol2bus.trans_dist::ReadResp            699850                       # Transaction distribution
system.tol2bus.trans_dist::Writeback           331088                       # Transaction distribution
system.tol2bus.trans_dist::UpgradeReq           56764                       # Transaction distribution
system.tol2bus.trans_dist::SCUpgradeReq        247851                       # Transaction distribution
system.tol2bus.trans_dist::UpgradeResp         304615                       # Transaction distribution
system.tol2bus.trans_dist::SCUpgradeFailReq          401                       # Transaction distribution
system.tol2bus.trans_dist::UpgradeFailResp          401                       # Transaction distribution
system.tol2bus.trans_dist::ReadExReq           193046                       # Transaction distribution
system.tol2bus.trans_dist::ReadExResp          193046                       # Transaction distribution
system.tol2bus.pkt_count_system.cpu0.icache.mem_side::system.l2.cpu_side          704                       # Packet count per connected master and slave (bytes)
system.tol2bus.pkt_count_system.cpu0.dcache.mem_side::system.l2.cpu_side         2720                       # Packet count per connected master and slave (bytes)
system.tol2bus.pkt_count_system.cpu1.icache.mem_side::system.l2.cpu_side         5384                       # Packet count per connected master and slave (bytes)
system.tol2bus.pkt_count_system.cpu1.dcache.mem_side::system.l2.cpu_side       967926                       # Packet count per connected master and slave (bytes)
system.tol2bus.pkt_count_system.cpu2.icache.mem_side::system.l2.cpu_side         3638                       # Packet count per connected master and slave (bytes)
system.tol2bus.pkt_count_system.cpu2.dcache.mem_side::system.l2.cpu_side       998698                       # Packet count per connected master and slave (bytes)
system.tol2bus.pkt_count::total               1979070                       # Packet count per connected master and slave (bytes)
system.tol2bus.pkt_size_system.cpu0.icache.mem_side::system.l2.cpu_side        22528                       # Cumulative packet size per connected master and slave (bytes)
system.tol2bus.pkt_size_system.cpu0.dcache.mem_side::system.l2.cpu_side       103488                       # Cumulative packet size per connected master and slave (bytes)
system.tol2bus.pkt_size_system.cpu1.icache.mem_side::system.l2.cpu_side       172288                       # Cumulative packet size per connected master and slave (bytes)
system.tol2bus.pkt_size_system.cpu1.dcache.mem_side::system.l2.cpu_side     21428416                       # Cumulative packet size per connected master and slave (bytes)
system.tol2bus.pkt_size_system.cpu2.icache.mem_side::system.l2.cpu_side       116416                       # Cumulative packet size per connected master and slave (bytes)
system.tol2bus.pkt_size_system.cpu2.dcache.mem_side::system.l2.cpu_side     22230208                       # Cumulative packet size per connected master and slave (bytes)
system.tol2bus.pkt_size::total               44073344                       # Cumulative packet size per connected master and slave (bytes)
system.tol2bus.snoops                          747842                       # Total snoops (count)
system.tol2bus.snoop_fanout::samples          1529000                       # Request fanout histogram
system.tol2bus.snoop_fanout::mean                   5                       # Request fanout histogram
system.tol2bus.snoop_fanout::stdev                  0                       # Request fanout histogram
system.tol2bus.snoop_fanout::underflows             0      0.00%      0.00% # Request fanout histogram
system.tol2bus.snoop_fanout::0                      0      0.00%      0.00% # Request fanout histogram
system.tol2bus.snoop_fanout::1                      0      0.00%      0.00% # Request fanout histogram
system.tol2bus.snoop_fanout::2                      0      0.00%      0.00% # Request fanout histogram
system.tol2bus.snoop_fanout::3                      0      0.00%      0.00% # Request fanout histogram
system.tol2bus.snoop_fanout::4                      0      0.00%      0.00% # Request fanout histogram
system.tol2bus.snoop_fanout::5                1529000    100.00%    100.00% # Request fanout histogram
system.tol2bus.snoop_fanout::6                      0      0.00%    100.00% # Request fanout histogram
system.tol2bus.snoop_fanout::overflows              0      0.00%    100.00% # Request fanout histogram
system.tol2bus.snoop_fanout::min_value              5                       # Request fanout histogram
system.tol2bus.snoop_fanout::max_value              5                       # Request fanout histogram
system.tol2bus.snoop_fanout::total            1529000                       # Request fanout histogram
system.tol2bus.reqLayer0.occupancy         1098512639                       # Layer occupancy (ticks)
system.tol2bus.reqLayer0.utilization              2.7                       # Layer utilization (%)
system.tol2bus.respLayer0.occupancy            528499                       # Layer occupancy (ticks)
system.tol2bus.respLayer0.utilization             0.0                       # Layer utilization (%)
system.tol2bus.respLayer1.occupancy           1658991                       # Layer occupancy (ticks)
system.tol2bus.respLayer1.utilization             0.0                       # Layer utilization (%)
system.tol2bus.respLayer4.occupancy           4064447                       # Layer occupancy (ticks)
system.tol2bus.respLayer4.utilization             0.0                       # Layer utilization (%)
system.tol2bus.respLayer5.occupancy         744229577                       # Layer occupancy (ticks)
system.tol2bus.respLayer5.utilization             1.9                       # Layer utilization (%)
system.tol2bus.respLayer8.occupancy           2746963                       # Layer occupancy (ticks)
system.tol2bus.respLayer8.utilization             0.0                       # Layer utilization (%)
system.tol2bus.respLayer9.occupancy         741498579                       # Layer occupancy (ticks)
system.tol2bus.respLayer9.utilization             1.9                       # Layer utilization (%)

---------- End Simulation Statistics   ----------
