
---------- Begin Simulation Statistics ----------
sim_seconds                                  0.068656                       # Number of seconds simulated
sim_ticks                                 68655504000                       # Number of ticks simulated
final_tick                                68655504000                       # Number of ticks from beginning of simulation (restored from checkpoints and never reset)
sim_freq                                 1000000000000                       # Frequency of simulated ticks
host_inst_rate                                 163375                       # Simulator instruction rate (inst/s)
host_op_rate                                   168812                       # Simulator op (including micro ops) rate (op/s)
host_tick_rate                               37870077                       # Simulator tick rate (ticks/s)
host_mem_usage                                 702208                       # Number of bytes of host memory used
host_seconds                                  1812.92                       # Real time elapsed on the host
sim_insts                                   296186801                       # Number of instructions simulated
sim_ops                                     306042276                       # Number of ops (including micro ops) simulated
system.voltage_domain.voltage                       1                       # Voltage in Volts
system.clk_domain.clock                          1000                       # Clock period in ticks
system.physmem.bytes_read::cpu0.inst            22144                       # Number of bytes read from this memory
system.physmem.bytes_read::cpu0.data            17856                       # Number of bytes read from this memory
system.physmem.bytes_read::cpu1.inst             5184                       # Number of bytes read from this memory
system.physmem.bytes_read::cpu1.data          3762816                       # Number of bytes read from this memory
system.physmem.bytes_read::cpu2.inst             3200                       # Number of bytes read from this memory
system.physmem.bytes_read::cpu2.data          3748416                       # Number of bytes read from this memory
system.physmem.bytes_read::cpu3.inst             7872                       # Number of bytes read from this memory
system.physmem.bytes_read::cpu3.data          4060992                       # Number of bytes read from this memory
system.physmem.bytes_read::cpu4.inst             5376                       # Number of bytes read from this memory
system.physmem.bytes_read::cpu4.data          3830400                       # Number of bytes read from this memory
system.physmem.bytes_read::total             15464256                       # Number of bytes read from this memory
system.physmem.bytes_inst_read::cpu0.inst        22144                       # Number of instructions bytes read from this memory
system.physmem.bytes_inst_read::cpu1.inst         5184                       # Number of instructions bytes read from this memory
system.physmem.bytes_inst_read::cpu2.inst         3200                       # Number of instructions bytes read from this memory
system.physmem.bytes_inst_read::cpu3.inst         7872                       # Number of instructions bytes read from this memory
system.physmem.bytes_inst_read::cpu4.inst         5376                       # Number of instructions bytes read from this memory
system.physmem.bytes_inst_read::total           43776                       # Number of instructions bytes read from this memory
system.physmem.bytes_written::writebacks       176704                       # Number of bytes written to this memory
system.physmem.bytes_written::total            176704                       # Number of bytes written to this memory
system.physmem.num_reads::cpu0.inst               346                       # Number of read requests responded to by this memory
system.physmem.num_reads::cpu0.data               279                       # Number of read requests responded to by this memory
system.physmem.num_reads::cpu1.inst                81                       # Number of read requests responded to by this memory
system.physmem.num_reads::cpu1.data             58794                       # Number of read requests responded to by this memory
system.physmem.num_reads::cpu2.inst                50                       # Number of read requests responded to by this memory
system.physmem.num_reads::cpu2.data             58569                       # Number of read requests responded to by this memory
system.physmem.num_reads::cpu3.inst               123                       # Number of read requests responded to by this memory
system.physmem.num_reads::cpu3.data             63453                       # Number of read requests responded to by this memory
system.physmem.num_reads::cpu4.inst                84                       # Number of read requests responded to by this memory
system.physmem.num_reads::cpu4.data             59850                       # Number of read requests responded to by this memory
system.physmem.num_reads::total                241629                       # Number of read requests responded to by this memory
system.physmem.num_writes::writebacks            2761                       # Number of write requests responded to by this memory
system.physmem.num_writes::total                 2761                       # Number of write requests responded to by this memory
system.physmem.bw_read::cpu0.inst              322538                       # Total read bandwidth from this memory (bytes/s)
system.physmem.bw_read::cpu0.data              260081                       # Total read bandwidth from this memory (bytes/s)
system.physmem.bw_read::cpu1.inst               75507                       # Total read bandwidth from this memory (bytes/s)
system.physmem.bw_read::cpu1.data            54807201                       # Total read bandwidth from this memory (bytes/s)
system.physmem.bw_read::cpu2.inst               46610                       # Total read bandwidth from this memory (bytes/s)
system.physmem.bw_read::cpu2.data            54597458                       # Total read bandwidth from this memory (bytes/s)
system.physmem.bw_read::cpu3.inst              114659                       # Total read bandwidth from this memory (bytes/s)
system.physmem.bw_read::cpu3.data            59150276                       # Total read bandwidth from this memory (bytes/s)
system.physmem.bw_read::cpu4.inst               78304                       # Total read bandwidth from this memory (bytes/s)
system.physmem.bw_read::cpu4.data            55791594                       # Total read bandwidth from this memory (bytes/s)
system.physmem.bw_read::total               225244228                       # Total read bandwidth from this memory (bytes/s)
system.physmem.bw_inst_read::cpu0.inst         322538                       # Instruction read bandwidth from this memory (bytes/s)
system.physmem.bw_inst_read::cpu1.inst          75507                       # Instruction read bandwidth from this memory (bytes/s)
system.physmem.bw_inst_read::cpu2.inst          46610                       # Instruction read bandwidth from this memory (bytes/s)
system.physmem.bw_inst_read::cpu3.inst         114659                       # Instruction read bandwidth from this memory (bytes/s)
system.physmem.bw_inst_read::cpu4.inst          78304                       # Instruction read bandwidth from this memory (bytes/s)
system.physmem.bw_inst_read::total             637618                       # Instruction read bandwidth from this memory (bytes/s)
system.physmem.bw_write::writebacks           2573778                       # Write bandwidth from this memory (bytes/s)
system.physmem.bw_write::total                2573778                       # Write bandwidth from this memory (bytes/s)
system.physmem.bw_total::writebacks           2573778                       # Total bandwidth to/from this memory (bytes/s)
system.physmem.bw_total::cpu0.inst             322538                       # Total bandwidth to/from this memory (bytes/s)
system.physmem.bw_total::cpu0.data             260081                       # Total bandwidth to/from this memory (bytes/s)
system.physmem.bw_total::cpu1.inst              75507                       # Total bandwidth to/from this memory (bytes/s)
system.physmem.bw_total::cpu1.data           54807201                       # Total bandwidth to/from this memory (bytes/s)
system.physmem.bw_total::cpu2.inst              46610                       # Total bandwidth to/from this memory (bytes/s)
system.physmem.bw_total::cpu2.data           54597458                       # Total bandwidth to/from this memory (bytes/s)
system.physmem.bw_total::cpu3.inst             114659                       # Total bandwidth to/from this memory (bytes/s)
system.physmem.bw_total::cpu3.data           59150276                       # Total bandwidth to/from this memory (bytes/s)
system.physmem.bw_total::cpu4.inst              78304                       # Total bandwidth to/from this memory (bytes/s)
system.physmem.bw_total::cpu4.data           55791594                       # Total bandwidth to/from this memory (bytes/s)
system.physmem.bw_total::total              227818006                       # Total bandwidth to/from this memory (bytes/s)
system.cpu0.branchPred.lookups               34316629                       # Number of BP lookups
system.cpu0.branchPred.condPredicted         34315721                       # Number of conditional branches predicted
system.cpu0.branchPred.condIncorrect              586                       # Number of conditional branches incorrect
system.cpu0.branchPred.BTBLookups            34315000                       # Number of BTB lookups
system.cpu0.branchPred.BTBHits               34314605                       # Number of BTB hits
system.cpu0.branchPred.BTBCorrect                   0                       # Number of correct BTB predictions (this stat may not work properly.
system.cpu0.branchPred.BTBHitPct            99.998849                       # BTB Hit Percentage
system.cpu0.branchPred.usedRAS                    287                       # Number of times the RAS was used to get a target.
system.cpu0.branchPred.RASInCorrect                55                       # Number of incorrect RAS predictions.
system.cpu0.dstage2_mmu.stage2_tlb.walker.walks            0                       # Table walker walks requested
system.cpu0.dstage2_mmu.stage2_tlb.walker.walkRequestOrigin_Requested::Data            0                       # Table walker requests started/completed, data/inst
system.cpu0.dstage2_mmu.stage2_tlb.walker.walkRequestOrigin_Requested::Inst            0                       # Table walker requests started/completed, data/inst
system.cpu0.dstage2_mmu.stage2_tlb.walker.walkRequestOrigin_Requested::total            0                       # Table walker requests started/completed, data/inst
system.cpu0.dstage2_mmu.stage2_tlb.walker.walkRequestOrigin_Completed::Data            0                       # Table walker requests started/completed, data/inst
system.cpu0.dstage2_mmu.stage2_tlb.walker.walkRequestOrigin_Completed::Inst            0                       # Table walker requests started/completed, data/inst
system.cpu0.dstage2_mmu.stage2_tlb.walker.walkRequestOrigin_Completed::total            0                       # Table walker requests started/completed, data/inst
system.cpu0.dstage2_mmu.stage2_tlb.walker.walkRequestOrigin::total            0                       # Table walker requests started/completed, data/inst
system.cpu0.dstage2_mmu.stage2_tlb.inst_hits            0                       # ITB inst hits
system.cpu0.dstage2_mmu.stage2_tlb.inst_misses            0                       # ITB inst misses
system.cpu0.dstage2_mmu.stage2_tlb.read_hits            0                       # DTB read hits
system.cpu0.dstage2_mmu.stage2_tlb.read_misses            0                       # DTB read misses
system.cpu0.dstage2_mmu.stage2_tlb.write_hits            0                       # DTB write hits
system.cpu0.dstage2_mmu.stage2_tlb.write_misses            0                       # DTB write misses
system.cpu0.dstage2_mmu.stage2_tlb.flush_tlb            0                       # Number of times complete TLB was flushed
system.cpu0.dstage2_mmu.stage2_tlb.flush_tlb_mva            0                       # Number of times TLB was flushed by MVA
system.cpu0.dstage2_mmu.stage2_tlb.flush_tlb_mva_asid            0                       # Number of times TLB was flushed by MVA & ASID
system.cpu0.dstage2_mmu.stage2_tlb.flush_tlb_asid            0                       # Number of times TLB was flushed by ASID
system.cpu0.dstage2_mmu.stage2_tlb.flush_entries            0                       # Number of entries that have been flushed from TLB
system.cpu0.dstage2_mmu.stage2_tlb.align_faults            0                       # Number of TLB faults due to alignment restrictions
system.cpu0.dstage2_mmu.stage2_tlb.prefetch_faults            0                       # Number of TLB faults due to prefetch
system.cpu0.dstage2_mmu.stage2_tlb.domain_faults            0                       # Number of TLB faults due to domain restrictions
system.cpu0.dstage2_mmu.stage2_tlb.perms_faults            0                       # Number of TLB faults due to permissions restrictions
system.cpu0.dstage2_mmu.stage2_tlb.read_accesses            0                       # DTB read accesses
system.cpu0.dstage2_mmu.stage2_tlb.write_accesses            0                       # DTB write accesses
system.cpu0.dstage2_mmu.stage2_tlb.inst_accesses            0                       # ITB inst accesses
system.cpu0.dstage2_mmu.stage2_tlb.hits             0                       # DTB hits
system.cpu0.dstage2_mmu.stage2_tlb.misses            0                       # DTB misses
system.cpu0.dstage2_mmu.stage2_tlb.accesses            0                       # DTB accesses
system.cpu0.dtb.walker.walks                        0                       # Table walker walks requested
system.cpu0.dtb.walker.walkRequestOrigin_Requested::Data            0                       # Table walker requests started/completed, data/inst
system.cpu0.dtb.walker.walkRequestOrigin_Requested::Inst            0                       # Table walker requests started/completed, data/inst
system.cpu0.dtb.walker.walkRequestOrigin_Requested::total            0                       # Table walker requests started/completed, data/inst
system.cpu0.dtb.walker.walkRequestOrigin_Completed::Data            0                       # Table walker requests started/completed, data/inst
system.cpu0.dtb.walker.walkRequestOrigin_Completed::Inst            0                       # Table walker requests started/completed, data/inst
system.cpu0.dtb.walker.walkRequestOrigin_Completed::total            0                       # Table walker requests started/completed, data/inst
system.cpu0.dtb.walker.walkRequestOrigin::total            0                       # Table walker requests started/completed, data/inst
system.cpu0.dtb.inst_hits                           0                       # ITB inst hits
system.cpu0.dtb.inst_misses                         0                       # ITB inst misses
system.cpu0.dtb.read_hits                           0                       # DTB read hits
system.cpu0.dtb.read_misses                         0                       # DTB read misses
system.cpu0.dtb.write_hits                          0                       # DTB write hits
system.cpu0.dtb.write_misses                        0                       # DTB write misses
system.cpu0.dtb.flush_tlb                           0                       # Number of times complete TLB was flushed
system.cpu0.dtb.flush_tlb_mva                       0                       # Number of times TLB was flushed by MVA
system.cpu0.dtb.flush_tlb_mva_asid                  0                       # Number of times TLB was flushed by MVA & ASID
system.cpu0.dtb.flush_tlb_asid                      0                       # Number of times TLB was flushed by ASID
system.cpu0.dtb.flush_entries                       0                       # Number of entries that have been flushed from TLB
system.cpu0.dtb.align_faults                        0                       # Number of TLB faults due to alignment restrictions
system.cpu0.dtb.prefetch_faults                     0                       # Number of TLB faults due to prefetch
system.cpu0.dtb.domain_faults                       0                       # Number of TLB faults due to domain restrictions
system.cpu0.dtb.perms_faults                        0                       # Number of TLB faults due to permissions restrictions
system.cpu0.dtb.read_accesses                       0                       # DTB read accesses
system.cpu0.dtb.write_accesses                      0                       # DTB write accesses
system.cpu0.dtb.inst_accesses                       0                       # ITB inst accesses
system.cpu0.dtb.hits                                0                       # DTB hits
system.cpu0.dtb.misses                              0                       # DTB misses
system.cpu0.dtb.accesses                            0                       # DTB accesses
system.cpu0.istage2_mmu.stage2_tlb.walker.walks            0                       # Table walker walks requested
system.cpu0.istage2_mmu.stage2_tlb.walker.walkRequestOrigin_Requested::Data            0                       # Table walker requests started/completed, data/inst
system.cpu0.istage2_mmu.stage2_tlb.walker.walkRequestOrigin_Requested::Inst            0                       # Table walker requests started/completed, data/inst
system.cpu0.istage2_mmu.stage2_tlb.walker.walkRequestOrigin_Requested::total            0                       # Table walker requests started/completed, data/inst
system.cpu0.istage2_mmu.stage2_tlb.walker.walkRequestOrigin_Completed::Data            0                       # Table walker requests started/completed, data/inst
system.cpu0.istage2_mmu.stage2_tlb.walker.walkRequestOrigin_Completed::Inst            0                       # Table walker requests started/completed, data/inst
system.cpu0.istage2_mmu.stage2_tlb.walker.walkRequestOrigin_Completed::total            0                       # Table walker requests started/completed, data/inst
system.cpu0.istage2_mmu.stage2_tlb.walker.walkRequestOrigin::total            0                       # Table walker requests started/completed, data/inst
system.cpu0.istage2_mmu.stage2_tlb.inst_hits            0                       # ITB inst hits
system.cpu0.istage2_mmu.stage2_tlb.inst_misses            0                       # ITB inst misses
system.cpu0.istage2_mmu.stage2_tlb.read_hits            0                       # DTB read hits
system.cpu0.istage2_mmu.stage2_tlb.read_misses            0                       # DTB read misses
system.cpu0.istage2_mmu.stage2_tlb.write_hits            0                       # DTB write hits
system.cpu0.istage2_mmu.stage2_tlb.write_misses            0                       # DTB write misses
system.cpu0.istage2_mmu.stage2_tlb.flush_tlb            0                       # Number of times complete TLB was flushed
system.cpu0.istage2_mmu.stage2_tlb.flush_tlb_mva            0                       # Number of times TLB was flushed by MVA
system.cpu0.istage2_mmu.stage2_tlb.flush_tlb_mva_asid            0                       # Number of times TLB was flushed by MVA & ASID
system.cpu0.istage2_mmu.stage2_tlb.flush_tlb_asid            0                       # Number of times TLB was flushed by ASID
system.cpu0.istage2_mmu.stage2_tlb.flush_entries            0                       # Number of entries that have been flushed from TLB
system.cpu0.istage2_mmu.stage2_tlb.align_faults            0                       # Number of TLB faults due to alignment restrictions
system.cpu0.istage2_mmu.stage2_tlb.prefetch_faults            0                       # Number of TLB faults due to prefetch
system.cpu0.istage2_mmu.stage2_tlb.domain_faults            0                       # Number of TLB faults due to domain restrictions
system.cpu0.istage2_mmu.stage2_tlb.perms_faults            0                       # Number of TLB faults due to permissions restrictions
system.cpu0.istage2_mmu.stage2_tlb.read_accesses            0                       # DTB read accesses
system.cpu0.istage2_mmu.stage2_tlb.write_accesses            0                       # DTB write accesses
system.cpu0.istage2_mmu.stage2_tlb.inst_accesses            0                       # ITB inst accesses
system.cpu0.istage2_mmu.stage2_tlb.hits             0                       # DTB hits
system.cpu0.istage2_mmu.stage2_tlb.misses            0                       # DTB misses
system.cpu0.istage2_mmu.stage2_tlb.accesses            0                       # DTB accesses
system.cpu0.itb.walker.walks                        0                       # Table walker walks requested
system.cpu0.itb.walker.walkRequestOrigin_Requested::Data            0                       # Table walker requests started/completed, data/inst
system.cpu0.itb.walker.walkRequestOrigin_Requested::Inst            0                       # Table walker requests started/completed, data/inst
system.cpu0.itb.walker.walkRequestOrigin_Requested::total            0                       # Table walker requests started/completed, data/inst
system.cpu0.itb.walker.walkRequestOrigin_Completed::Data            0                       # Table walker requests started/completed, data/inst
system.cpu0.itb.walker.walkRequestOrigin_Completed::Inst            0                       # Table walker requests started/completed, data/inst
system.cpu0.itb.walker.walkRequestOrigin_Completed::total            0                       # Table walker requests started/completed, data/inst
system.cpu0.itb.walker.walkRequestOrigin::total            0                       # Table walker requests started/completed, data/inst
system.cpu0.itb.inst_hits                           0                       # ITB inst hits
system.cpu0.itb.inst_misses                         0                       # ITB inst misses
system.cpu0.itb.read_hits                           0                       # DTB read hits
system.cpu0.itb.read_misses                         0                       # DTB read misses
system.cpu0.itb.write_hits                          0                       # DTB write hits
system.cpu0.itb.write_misses                        0                       # DTB write misses
system.cpu0.itb.flush_tlb                           0                       # Number of times complete TLB was flushed
system.cpu0.itb.flush_tlb_mva                       0                       # Number of times TLB was flushed by MVA
system.cpu0.itb.flush_tlb_mva_asid                  0                       # Number of times TLB was flushed by MVA & ASID
system.cpu0.itb.flush_tlb_asid                      0                       # Number of times TLB was flushed by ASID
system.cpu0.itb.flush_entries                       0                       # Number of entries that have been flushed from TLB
system.cpu0.itb.align_faults                        0                       # Number of TLB faults due to alignment restrictions
system.cpu0.itb.prefetch_faults                     0                       # Number of TLB faults due to prefetch
system.cpu0.itb.domain_faults                       0                       # Number of TLB faults due to domain restrictions
system.cpu0.itb.perms_faults                        0                       # Number of TLB faults due to permissions restrictions
system.cpu0.itb.read_accesses                       0                       # DTB read accesses
system.cpu0.itb.write_accesses                      0                       # DTB write accesses
system.cpu0.itb.inst_accesses                       0                       # ITB inst accesses
system.cpu0.itb.hits                                0                       # DTB hits
system.cpu0.itb.misses                              0                       # DTB misses
system.cpu0.itb.accesses                            0                       # DTB accesses
system.cpu0.workload.num_syscalls               81577                       # Number of system calls
system.cpu0.numCycles                        68655505                       # number of cpu cycles simulated
system.cpu0.numWorkItemsStarted                     0                       # number of work items this cpu started
system.cpu0.numWorkItemsCompleted                   0                       # number of work items this cpu completed
system.cpu0.fetch.icacheStallCycles              8273                       # Number of cycles fetch is stalled on an Icache miss
system.cpu0.fetch.Insts                     171583993                       # Number of instructions fetch has processed
system.cpu0.fetch.Branches                   34316629                       # Number of branches that fetch encountered
system.cpu0.fetch.predictedBranches          34314892                       # Number of branches that fetch has predicted taken
system.cpu0.fetch.Cycles                     68638213                       # Number of cycles fetch has run and was not squashing or blocked
system.cpu0.fetch.SquashCycles                   1501                       # Number of cycles fetch has spent squashing
system.cpu0.fetch.PendingTrapStallCycles          149                       # Number of stall cycles due to pending traps
system.cpu0.fetch.CacheLines                     2003                       # Number of cache lines fetched
system.cpu0.fetch.IcacheSquashes                  248                       # Number of outstanding Icache misses that were squashed
system.cpu0.fetch.rateDist::samples          68647385                       # Number of instructions fetched each cycle (Total)
system.cpu0.fetch.rateDist::mean             2.499562                       # Number of instructions fetched each cycle (Total)
system.cpu0.fetch.rateDist::stdev            0.501128                       # Number of instructions fetched each cycle (Total)
system.cpu0.fetch.rateDist::underflows              0      0.00%      0.00% # Number of instructions fetched each cycle (Total)
system.cpu0.fetch.rateDist::0                   12707      0.02%      0.02% # Number of instructions fetched each cycle (Total)
system.cpu0.fetch.rateDist::1                     656      0.00%      0.02% # Number of instructions fetched each cycle (Total)
system.cpu0.fetch.rateDist::2                34314360     49.99%     50.01% # Number of instructions fetched each cycle (Total)
system.cpu0.fetch.rateDist::3                34319662     49.99%    100.00% # Number of instructions fetched each cycle (Total)
system.cpu0.fetch.rateDist::overflows               0      0.00%    100.00% # Number of instructions fetched each cycle (Total)
system.cpu0.fetch.rateDist::min_value               0                       # Number of instructions fetched each cycle (Total)
system.cpu0.fetch.rateDist::max_value               3                       # Number of instructions fetched each cycle (Total)
system.cpu0.fetch.rateDist::total            68647385                       # Number of instructions fetched each cycle (Total)
system.cpu0.fetch.branchRate                 0.499838                       # Number of branch fetches per cycle
system.cpu0.fetch.rate                       2.499202                       # Number of inst fetches per cycle
system.cpu0.decode.IdleCycles                    7961                       # Number of cycles decode is idle
system.cpu0.decode.BlockedCycles                 5476                       # Number of cycles decode is blocked
system.cpu0.decode.RunCycles                 68632541                       # Number of cycles decode is running
system.cpu0.decode.UnblockCycles                  852                       # Number of cycles decode is unblocking
system.cpu0.decode.SquashCycles                   555                       # Number of cycles decode is squashing
system.cpu0.decode.BranchResolved                 375                       # Number of times decode resolved a branch
system.cpu0.decode.BranchMispred                  202                       # Number of times decode detected a branch misprediction
system.cpu0.decode.DecodedInsts             171585612                       # Number of instructions handled by decode
system.cpu0.decode.SquashedInsts                  480                       # Number of squashed instructions handled by decode
system.cpu0.rename.SquashCycles                   555                       # Number of cycles rename is squashing
system.cpu0.rename.IdleCycles                    8649                       # Number of cycles rename is idle
system.cpu0.rename.BlockCycles                    680                       # Number of cycles rename is blocking
system.cpu0.rename.serializeStallCycles          2067                       # count of cycles rename stalled for serializing inst
system.cpu0.rename.RunCycles                 68632595                       # Number of cycles rename is running
system.cpu0.rename.UnblockCycles                 2839                       # Number of cycles rename is unblocking
system.cpu0.rename.RenamedInsts             171584586                       # Number of instructions processed by rename
system.cpu0.rename.IQFullEvents                    17                       # Number of times rename has blocked due to IQ full
system.cpu0.rename.LQFullEvents                    11                       # Number of times rename has blocked due to LQ full
system.cpu0.rename.SQFullEvents                  2671                       # Number of times rename has blocked due to SQ full
system.cpu0.rename.RenamedOperands          171586179                       # Number of destination operands rename has renamed
system.cpu0.rename.RenameLookups            789293574                       # Number of register rename lookups that rename has made
system.cpu0.rename.int_rename_lookups       171589756                       # Number of integer rename lookups
system.cpu0.rename.fp_rename_lookups               16                       # Number of floating rename lookups
system.cpu0.rename.CommittedMaps            171578379                       # Number of HB maps that are committed
system.cpu0.rename.UndoneMaps                    7800                       # Number of HB maps that are undone due to squashing
system.cpu0.rename.serializingInsts                52                       # count of serializing insts renamed
system.cpu0.rename.tempSerializingInsts            51                       # count of temporary serializing insts renamed
system.cpu0.rename.skidInsts                     1225                       # count of insts added to the skid buffer
system.cpu0.memDep0.insertedLoads            68628939                       # Number of loads inserted to the mem dependence unit.
system.cpu0.memDep0.insertedStores           34317013                       # Number of stores inserted to the mem dependence unit.
system.cpu0.memDep0.conflictingLoads         34312831                       # Number of conflicting loads.
system.cpu0.memDep0.conflictingStores        34312803                       # Number of conflicting stores.
system.cpu0.iq.iqInstsAdded                 171582675                       # Number of instructions added to the IQ (excludes non-spec)
system.cpu0.iq.iqNonSpecInstsAdded                 74                       # Number of non-speculative instructions added to the IQ
system.cpu0.iq.iqInstsIssued                171580346                       # Number of instructions issued
system.cpu0.iq.iqSquashedInstsIssued              467                       # Number of squashed instructions issued
system.cpu0.iq.iqSquashedInstsExamined           5364                       # Number of squashed instructions iterated over during squash; mainly for profiling
system.cpu0.iq.iqSquashedOperandsExamined        13835                       # Number of squashed operands that are examined and possibly removed from graph
system.cpu0.iq.iqSquashedNonSpecRemoved             5                       # Number of squashed non-spec instructions that were removed
system.cpu0.iq.issued_per_cycle::samples     68647385                       # Number of insts issued each cycle
system.cpu0.iq.issued_per_cycle::mean        2.499445                       # Number of insts issued each cycle
system.cpu0.iq.issued_per_cycle::stdev       0.706675                       # Number of insts issued each cycle
system.cpu0.iq.issued_per_cycle::underflows            0      0.00%      0.00% # Number of insts issued each cycle
system.cpu0.iq.issued_per_cycle::0              13710      0.02%      0.02% # Number of insts issued each cycle
system.cpu0.iq.issued_per_cycle::1            8518854     12.41%     12.43% # Number of insts issued each cycle
system.cpu0.iq.issued_per_cycle::2           17282971     25.18%     37.61% # Number of insts issued each cycle
system.cpu0.iq.issued_per_cycle::3           42831850     62.39%    100.00% # Number of insts issued each cycle
system.cpu0.iq.issued_per_cycle::overflows            0      0.00%    100.00% # Number of insts issued each cycle
system.cpu0.iq.issued_per_cycle::min_value            0                       # Number of insts issued each cycle
system.cpu0.iq.issued_per_cycle::max_value            3                       # Number of insts issued each cycle
system.cpu0.iq.issued_per_cycle::total       68647385                       # Number of insts issued each cycle
system.cpu0.iq.fu_full::No_OpClass                  0                       # attempts to use FU when none available
system.cpu0.iq.fu_full::IntAlu                      0                       # attempts to use FU when none available
system.cpu0.iq.fu_full::IntMult                     0                       # attempts to use FU when none available
system.cpu0.iq.fu_full::IntDiv                      0                       # attempts to use FU when none available
system.cpu0.iq.fu_full::FloatAdd                    0                       # attempts to use FU when none available
system.cpu0.iq.fu_full::FloatCmp                    0                       # attempts to use FU when none available
system.cpu0.iq.fu_full::FloatCvt                    0                       # attempts to use FU when none available
system.cpu0.iq.fu_full::FloatMult                   0                       # attempts to use FU when none available
system.cpu0.iq.fu_full::FloatDiv                    0                       # attempts to use FU when none available
system.cpu0.iq.fu_full::FloatSqrt                   0                       # attempts to use FU when none available
system.cpu0.iq.fu_full::SimdAdd                     0                       # attempts to use FU when none available
system.cpu0.iq.fu_full::SimdAddAcc                  0                       # attempts to use FU when none available
system.cpu0.iq.fu_full::SimdAlu                     0                       # attempts to use FU when none available
system.cpu0.iq.fu_full::SimdCmp                     0                       # attempts to use FU when none available
system.cpu0.iq.fu_full::SimdCvt                     0                       # attempts to use FU when none available
system.cpu0.iq.fu_full::SimdMisc                    0                       # attempts to use FU when none available
system.cpu0.iq.fu_full::SimdMult                    0                       # attempts to use FU when none available
system.cpu0.iq.fu_full::SimdMultAcc                 0                       # attempts to use FU when none available
system.cpu0.iq.fu_full::SimdShift                   0                       # attempts to use FU when none available
system.cpu0.iq.fu_full::SimdShiftAcc                0                       # attempts to use FU when none available
system.cpu0.iq.fu_full::SimdSqrt                    0                       # attempts to use FU when none available
system.cpu0.iq.fu_full::SimdFloatAdd                0                       # attempts to use FU when none available
system.cpu0.iq.fu_full::SimdFloatAlu                0                       # attempts to use FU when none available
system.cpu0.iq.fu_full::SimdFloatCmp                0                       # attempts to use FU when none available
system.cpu0.iq.fu_full::SimdFloatCvt                0                       # attempts to use FU when none available
system.cpu0.iq.fu_full::SimdFloatDiv                0                       # attempts to use FU when none available
system.cpu0.iq.fu_full::SimdFloatMisc               0                       # attempts to use FU when none available
system.cpu0.iq.fu_full::SimdFloatMult               0                       # attempts to use FU when none available
system.cpu0.iq.fu_full::SimdFloatMultAcc            0                       # attempts to use FU when none available
system.cpu0.iq.fu_full::SimdFloatSqrt               0                       # attempts to use FU when none available
system.cpu0.iq.fu_full::MemRead                     0                       # attempts to use FU when none available
system.cpu0.iq.fu_full::MemWrite                    0                       # attempts to use FU when none available
system.cpu0.iq.fu_full::IprAccess                   0                       # attempts to use FU when none available
system.cpu0.iq.fu_full::InstPrefetch                0                       # attempts to use FU when none available
system.cpu0.iq.FU_type_0::No_OpClass                0      0.00%      0.00% # Type of FU issued
system.cpu0.iq.FU_type_0::IntAlu             68635186     40.00%     40.00% # Type of FU issued
system.cpu0.iq.FU_type_0::IntMult                   6      0.00%     40.00% # Type of FU issued
system.cpu0.iq.FU_type_0::IntDiv                    0      0.00%     40.00% # Type of FU issued
system.cpu0.iq.FU_type_0::FloatAdd                  0      0.00%     40.00% # Type of FU issued
system.cpu0.iq.FU_type_0::FloatCmp                  0      0.00%     40.00% # Type of FU issued
system.cpu0.iq.FU_type_0::FloatCvt                  0      0.00%     40.00% # Type of FU issued
system.cpu0.iq.FU_type_0::FloatMult                 0      0.00%     40.00% # Type of FU issued
system.cpu0.iq.FU_type_0::FloatDiv                  0      0.00%     40.00% # Type of FU issued
system.cpu0.iq.FU_type_0::FloatSqrt                 0      0.00%     40.00% # Type of FU issued
system.cpu0.iq.FU_type_0::SimdAdd                   0      0.00%     40.00% # Type of FU issued
system.cpu0.iq.FU_type_0::SimdAddAcc                0      0.00%     40.00% # Type of FU issued
system.cpu0.iq.FU_type_0::SimdAlu                   0      0.00%     40.00% # Type of FU issued
system.cpu0.iq.FU_type_0::SimdCmp                   0      0.00%     40.00% # Type of FU issued
system.cpu0.iq.FU_type_0::SimdCvt                   0      0.00%     40.00% # Type of FU issued
system.cpu0.iq.FU_type_0::SimdMisc                  0      0.00%     40.00% # Type of FU issued
system.cpu0.iq.FU_type_0::SimdMult                  0      0.00%     40.00% # Type of FU issued
system.cpu0.iq.FU_type_0::SimdMultAcc               0      0.00%     40.00% # Type of FU issued
system.cpu0.iq.FU_type_0::SimdShift                 0      0.00%     40.00% # Type of FU issued
system.cpu0.iq.FU_type_0::SimdShiftAcc              0      0.00%     40.00% # Type of FU issued
system.cpu0.iq.FU_type_0::SimdSqrt                  0      0.00%     40.00% # Type of FU issued
system.cpu0.iq.FU_type_0::SimdFloatAdd              0      0.00%     40.00% # Type of FU issued
system.cpu0.iq.FU_type_0::SimdFloatAlu              0      0.00%     40.00% # Type of FU issued
system.cpu0.iq.FU_type_0::SimdFloatCmp              0      0.00%     40.00% # Type of FU issued
system.cpu0.iq.FU_type_0::SimdFloatCvt              0      0.00%     40.00% # Type of FU issued
system.cpu0.iq.FU_type_0::SimdFloatDiv              0      0.00%     40.00% # Type of FU issued
system.cpu0.iq.FU_type_0::SimdFloatMisc             3      0.00%     40.00% # Type of FU issued
system.cpu0.iq.FU_type_0::SimdFloatMult             0      0.00%     40.00% # Type of FU issued
system.cpu0.iq.FU_type_0::SimdFloatMultAcc            0      0.00%     40.00% # Type of FU issued
system.cpu0.iq.FU_type_0::SimdFloatSqrt             0      0.00%     40.00% # Type of FU issued
system.cpu0.iq.FU_type_0::MemRead            68628438     40.00%     80.00% # Type of FU issued
system.cpu0.iq.FU_type_0::MemWrite           34316713     20.00%    100.00% # Type of FU issued
system.cpu0.iq.FU_type_0::IprAccess                 0      0.00%    100.00% # Type of FU issued
system.cpu0.iq.FU_type_0::InstPrefetch              0      0.00%    100.00% # Type of FU issued
system.cpu0.iq.FU_type_0::total             171580346                       # Type of FU issued
system.cpu0.iq.rate                          2.499149                       # Inst issue rate
system.cpu0.iq.fu_busy_cnt                          0                       # FU busy when requested
system.cpu0.iq.fu_busy_rate                         0                       # FU busy rate (busy events/executed inst)
system.cpu0.iq.int_inst_queue_reads         411808512                       # Number of integer instruction queue reads
system.cpu0.iq.int_inst_queue_writes        171588244                       # Number of integer instruction queue writes
system.cpu0.iq.int_inst_queue_wakeup_accesses    171579499                       # Number of integer instruction queue wakeup accesses
system.cpu0.iq.fp_inst_queue_reads                 32                       # Number of floating instruction queue reads
system.cpu0.iq.fp_inst_queue_writes                16                       # Number of floating instruction queue writes
system.cpu0.iq.fp_inst_queue_wakeup_accesses           16                       # Number of floating instruction queue wakeup accesses
system.cpu0.iq.int_alu_accesses             171580330                       # Number of integer alu accesses
system.cpu0.iq.fp_alu_accesses                     16                       # Number of floating point alu accesses
system.cpu0.iew.lsq.thread0.forwLoads        34313095                       # Number of loads that had data forwarded from stores
system.cpu0.iew.lsq.thread0.invAddrLoads            0                       # Number of loads ignored due to an invalid address
system.cpu0.iew.lsq.thread0.squashedLoads         1567                       # Number of loads squashed
system.cpu0.iew.lsq.thread0.ignoredResponses            4                       # Number of memory responses ignored because the instruction is squashed
system.cpu0.iew.lsq.thread0.memOrderViolation          147                       # Number of memory ordering violations
system.cpu0.iew.lsq.thread0.squashedStores          588                       # Number of stores squashed
system.cpu0.iew.lsq.thread0.invAddrSwpfs            0                       # Number of software prefetches ignored due to an invalid address
system.cpu0.iew.lsq.thread0.blockedLoads            0                       # Number of blocked loads due to partial load-store forwarding
system.cpu0.iew.lsq.thread0.rescheduledLoads            5                       # Number of loads that were rescheduled
system.cpu0.iew.lsq.thread0.cacheBlocked            0                       # Number of times an access to memory failed due to the cache being blocked
system.cpu0.iew.iewIdleCycles                       0                       # Number of cycles IEW is idle
system.cpu0.iew.iewSquashCycles                   555                       # Number of cycles IEW is squashing
system.cpu0.iew.iewBlockCycles                    542                       # Number of cycles IEW is blocking
system.cpu0.iew.iewUnblockCycles                  137                       # Number of cycles IEW is unblocking
system.cpu0.iew.iewDispatchedInsts          171582768                       # Number of instructions dispatched to IQ
system.cpu0.iew.iewDispSquashedInsts              270                       # Number of squashed instructions skipped by dispatch
system.cpu0.iew.iewDispLoadInsts             68628939                       # Number of dispatched load instructions
system.cpu0.iew.iewDispStoreInsts            34317013                       # Number of dispatched store instructions
system.cpu0.iew.iewDispNonSpecInsts                48                       # Number of dispatched non-speculative instructions
system.cpu0.iew.iewIQFullEvents                    12                       # Number of times the IQ has become full, causing a stall
system.cpu0.iew.iewLSQFullEvents                    0                       # Number of times the LSQ has become full, causing a stall
system.cpu0.iew.memOrderViolationEvents           147                       # Number of memory order violations
system.cpu0.iew.predictedTakenIncorrect           115                       # Number of branches that were predicted taken incorrectly
system.cpu0.iew.predictedNotTakenIncorrect          303                       # Number of branches that were predicted not taken incorrectly
system.cpu0.iew.branchMispredicts                 418                       # Number of branch mispredicts detected at execute
system.cpu0.iew.iewExecutedInsts            171579818                       # Number of executed instructions
system.cpu0.iew.iewExecLoadInsts             68628323                       # Number of load instructions executed
system.cpu0.iew.iewExecSquashedInsts              528                       # Number of squashed instructions skipped in execute
system.cpu0.iew.exec_swp                            0                       # number of swp insts executed
system.cpu0.iew.exec_nop                           19                       # number of nop insts executed
system.cpu0.iew.exec_refs                   102944859                       # number of memory reference insts executed
system.cpu0.iew.exec_branches                34315009                       # Number of branches executed
system.cpu0.iew.exec_forward_branches             830                       # Number of forward branches executed
system.cpu0.iew.exec_backward_branches       34313863                       # Number of backward branches executed
system.cpu0.iew.exec_taken_forward_branches          314                       # Number of forward branches executed that is taken
system.cpu0.iew.exec_nottaken_forward_branches          516                       # Number of forward branches executed that is not taken
system.cpu0.iew.exec_taken_backward_branches     34313628                       # Number of backward branches executed that is taken
system.cpu0.iew.exec_nottaken_backward_branches          235                       # Number of backward branches executed that is not taken
system.cpu0.iew.exec_stores                  34316536                       # Number of stores executed
system.cpu0.iew.exec_rate                    2.499141                       # Inst execution rate
system.cpu0.iew.wb_sent                     171579595                       # cumulative count of insts sent to commit
system.cpu0.iew.wb_count                    171579515                       # cumulative count of insts written-back
system.cpu0.iew.wb_producers                102945503                       # num instructions producing a value
system.cpu0.iew.wb_consumers                102955387                       # num instructions consuming a value
system.cpu0.iew.wb_penalized                        0                       # number of instrctions required to write to 'other' IQ
system.cpu0.iew.wb_rate                      2.499137                       # insts written-back per cycle
system.cpu0.iew.wb_fanout                    0.999904                       # average fanout of values written-back
system.cpu0.iew.wb_penalized_rate                   0                       # fraction of instructions written-back that wrote to 'other' IQ
system.cpu0.commit.commitSquashedInsts           5382                       # The number of squashed insts skipped by commit
system.cpu0.commit.commitNonSpecStalls             69                       # The number of times commit has been forced to stall to communicate backwards
system.cpu0.commit.branchMispredicts              391                       # The number of times a branch was mispredicted
system.cpu0.commit.committed_per_cycle::samples     68646433                       # Number of insts commited each cycle
system.cpu0.commit.committed_per_cycle::mean     2.499436                       # Number of insts commited each cycle
system.cpu0.commit.committed_per_cycle::stdev     1.580809                       # Number of insts commited each cycle
system.cpu0.commit.committed_per_cycle::underflows            0      0.00%      0.00% # Number of insts commited each cycle
system.cpu0.commit.committed_per_cycle::0        14675      0.02%      0.02% # Number of insts commited each cycle
system.cpu0.commit.committed_per_cycle::1     34315408     49.99%     50.01% # Number of insts commited each cycle
system.cpu0.commit.committed_per_cycle::2         1278      0.00%     50.01% # Number of insts commited each cycle
system.cpu0.commit.committed_per_cycle::3      8517586     12.41%     62.42% # Number of insts commited each cycle
system.cpu0.commit.committed_per_cycle::4     17281413     25.17%     87.59% # Number of insts commited each cycle
system.cpu0.commit.committed_per_cycle::5      8515750     12.41%    100.00% # Number of insts commited each cycle
system.cpu0.commit.committed_per_cycle::6           78      0.00%    100.00% # Number of insts commited each cycle
system.cpu0.commit.committed_per_cycle::7          167      0.00%    100.00% # Number of insts commited each cycle
system.cpu0.commit.committed_per_cycle::8           78      0.00%    100.00% # Number of insts commited each cycle
system.cpu0.commit.committed_per_cycle::overflows            0      0.00%    100.00% # Number of insts commited each cycle
system.cpu0.commit.committed_per_cycle::min_value            0                       # Number of insts commited each cycle
system.cpu0.commit.committed_per_cycle::max_value            8                       # Number of insts commited each cycle
system.cpu0.commit.committed_per_cycle::total     68646433                       # Number of insts commited each cycle
system.cpu0.commit.committedInsts           171573994                       # Number of instructions committed
system.cpu0.commit.committedOps             171577385                       # Number of ops (including micro ops) committed
system.cpu0.commit.swp_count                        0                       # Number of s/w prefetches committed
system.cpu0.commit.refs                     102943797                       # Number of memory references committed
system.cpu0.commit.loads                     68627372                       # Number of loads committed
system.cpu0.commit.membars                         26                       # Number of memory barriers committed
system.cpu0.commit.branches                  34314605                       # Number of branches committed
system.cpu0.commit.fp_insts                        16                       # Number of committed floating point instructions.
system.cpu0.commit.int_insts                137263176                       # Number of committed integer instructions.
system.cpu0.commit.function_calls                 156                       # Number of function calls committed.
system.cpu0.commit.op_class_0::No_OpClass            0      0.00%      0.00% # Class of committed instruction
system.cpu0.commit.op_class_0::IntAlu        68633579     40.00%     40.00% # Class of committed instruction
system.cpu0.commit.op_class_0::IntMult              6      0.00%     40.00% # Class of committed instruction
system.cpu0.commit.op_class_0::IntDiv               0      0.00%     40.00% # Class of committed instruction
system.cpu0.commit.op_class_0::FloatAdd             0      0.00%     40.00% # Class of committed instruction
system.cpu0.commit.op_class_0::FloatCmp             0      0.00%     40.00% # Class of committed instruction
system.cpu0.commit.op_class_0::FloatCvt             0      0.00%     40.00% # Class of committed instruction
system.cpu0.commit.op_class_0::FloatMult            0      0.00%     40.00% # Class of committed instruction
system.cpu0.commit.op_class_0::FloatDiv             0      0.00%     40.00% # Class of committed instruction
system.cpu0.commit.op_class_0::FloatSqrt            0      0.00%     40.00% # Class of committed instruction
system.cpu0.commit.op_class_0::SimdAdd              0      0.00%     40.00% # Class of committed instruction
system.cpu0.commit.op_class_0::SimdAddAcc            0      0.00%     40.00% # Class of committed instruction
system.cpu0.commit.op_class_0::SimdAlu              0      0.00%     40.00% # Class of committed instruction
system.cpu0.commit.op_class_0::SimdCmp              0      0.00%     40.00% # Class of committed instruction
system.cpu0.commit.op_class_0::SimdCvt              0      0.00%     40.00% # Class of committed instruction
system.cpu0.commit.op_class_0::SimdMisc             0      0.00%     40.00% # Class of committed instruction
system.cpu0.commit.op_class_0::SimdMult             0      0.00%     40.00% # Class of committed instruction
system.cpu0.commit.op_class_0::SimdMultAcc            0      0.00%     40.00% # Class of committed instruction
system.cpu0.commit.op_class_0::SimdShift            0      0.00%     40.00% # Class of committed instruction
system.cpu0.commit.op_class_0::SimdShiftAcc            0      0.00%     40.00% # Class of committed instruction
system.cpu0.commit.op_class_0::SimdSqrt             0      0.00%     40.00% # Class of committed instruction
system.cpu0.commit.op_class_0::SimdFloatAdd            0      0.00%     40.00% # Class of committed instruction
system.cpu0.commit.op_class_0::SimdFloatAlu            0      0.00%     40.00% # Class of committed instruction
system.cpu0.commit.op_class_0::SimdFloatCmp            0      0.00%     40.00% # Class of committed instruction
system.cpu0.commit.op_class_0::SimdFloatCvt            0      0.00%     40.00% # Class of committed instruction
system.cpu0.commit.op_class_0::SimdFloatDiv            0      0.00%     40.00% # Class of committed instruction
system.cpu0.commit.op_class_0::SimdFloatMisc            3      0.00%     40.00% # Class of committed instruction
system.cpu0.commit.op_class_0::SimdFloatMult            0      0.00%     40.00% # Class of committed instruction
system.cpu0.commit.op_class_0::SimdFloatMultAcc            0      0.00%     40.00% # Class of committed instruction
system.cpu0.commit.op_class_0::SimdFloatSqrt            0      0.00%     40.00% # Class of committed instruction
system.cpu0.commit.op_class_0::MemRead       68627372     40.00%     80.00% # Class of committed instruction
system.cpu0.commit.op_class_0::MemWrite      34316425     20.00%    100.00% # Class of committed instruction
system.cpu0.commit.op_class_0::IprAccess            0      0.00%    100.00% # Class of committed instruction
system.cpu0.commit.op_class_0::InstPrefetch            0      0.00%    100.00% # Class of committed instruction
system.cpu0.commit.op_class_0::total        171577385                       # Class of committed instruction
system.cpu0.commit.bw_lim_events                   78                       # number cycles where commit BW limit reached
system.cpu0.rob.rob_reads                   240228913                       # The number of ROB reads
system.cpu0.rob.rob_writes                  343166491                       # The number of ROB writes
system.cpu0.timesIdled                            249                       # Number of times that the entire CPU went into an idle state and unscheduled itself
system.cpu0.idleCycles                           8120                       # Total number of cycles that the CPU has spent unscheduled due to idling
system.cpu0.committedInsts                  171573994                       # Number of Instructions Simulated
system.cpu0.committedOps                    171577385                       # Number of Ops (including micro ops) Simulated
system.cpu0.cpi                              0.400151                       # CPI: Cycles Per Instruction
system.cpu0.cpi_total                        0.400151                       # CPI: Total CPI of All Threads
system.cpu0.ipc                              2.499057                       # IPC: Instructions Per Cycle
system.cpu0.ipc_total                        2.499057                       # IPC: Total IPC of All Threads
system.cpu0.int_regfile_reads               171582339                       # number of integer regfile reads
system.cpu0.int_regfile_writes               68634268                       # number of integer regfile writes
system.cpu0.fp_regfile_reads                      656                       # number of floating regfile reads
system.cpu0.cc_regfile_reads                720623493                       # number of cc regfile reads
system.cpu0.cc_regfile_writes               102946389                       # number of cc regfile writes
system.cpu0.misc_regfile_reads              105071226                       # number of misc regfile reads
system.cpu0.misc_regfile_writes                    52                       # number of misc regfile writes
system.cpu0.dcache.tags.replacements               34                       # number of replacements
system.cpu0.dcache.tags.tagsinuse          125.173973                       # Cycle average of tags in use
system.cpu0.dcache.tags.total_refs           68628681                       # Total number of references to valid blocks.
system.cpu0.dcache.tags.sampled_refs              179                       # Sample count of references to valid blocks.
system.cpu0.dcache.tags.avg_refs         383400.452514                       # Average number of references to valid blocks.
system.cpu0.dcache.tags.warmup_cycle                0                       # Cycle when the warmup percentage was hit.
system.cpu0.dcache.tags.occ_blocks::cpu0.data   125.173973                       # Average occupied blocks per requestor
system.cpu0.dcache.tags.occ_percent::cpu0.data     0.244480                       # Average percentage of cache occupancy
system.cpu0.dcache.tags.occ_percent::total     0.244480                       # Average percentage of cache occupancy
system.cpu0.dcache.tags.occ_task_id_blocks::1024          145                       # Occupied blocks per task id
system.cpu0.dcache.tags.age_task_id_blocks_1024::0           24                       # Occupied blocks per task id
system.cpu0.dcache.tags.age_task_id_blocks_1024::4          121                       # Occupied blocks per task id
system.cpu0.dcache.tags.occ_task_id_percent::1024     0.283203                       # Percentage of cache occupancy per task id
system.cpu0.dcache.tags.tag_accesses        137263267                       # Number of tag accesses
system.cpu0.dcache.tags.data_accesses       137263267                       # Number of data accesses
system.cpu0.dcache.ReadReq_hits::cpu0.data     34314854                       # number of ReadReq hits
system.cpu0.dcache.ReadReq_hits::total       34314854                       # number of ReadReq hits
system.cpu0.dcache.WriteReq_hits::cpu0.data     34313965                       # number of WriteReq hits
system.cpu0.dcache.WriteReq_hits::total      34313965                       # number of WriteReq hits
system.cpu0.dcache.LoadLockedReq_hits::cpu0.data           22                       # number of LoadLockedReq hits
system.cpu0.dcache.LoadLockedReq_hits::total           22                       # number of LoadLockedReq hits
system.cpu0.dcache.StoreCondReq_hits::cpu0.data           24                       # number of StoreCondReq hits
system.cpu0.dcache.StoreCondReq_hits::total           24                       # number of StoreCondReq hits
system.cpu0.dcache.demand_hits::cpu0.data     68628819                       # number of demand (read+write) hits
system.cpu0.dcache.demand_hits::total        68628819                       # number of demand (read+write) hits
system.cpu0.dcache.overall_hits::cpu0.data     68628819                       # number of overall hits
system.cpu0.dcache.overall_hits::total       68628819                       # number of overall hits
system.cpu0.dcache.ReadReq_misses::cpu0.data          215                       # number of ReadReq misses
system.cpu0.dcache.ReadReq_misses::total          215                       # number of ReadReq misses
system.cpu0.dcache.WriteReq_misses::cpu0.data         2388                       # number of WriteReq misses
system.cpu0.dcache.WriteReq_misses::total         2388                       # number of WriteReq misses
system.cpu0.dcache.LoadLockedReq_misses::cpu0.data            3                       # number of LoadLockedReq misses
system.cpu0.dcache.LoadLockedReq_misses::total            3                       # number of LoadLockedReq misses
system.cpu0.dcache.StoreCondReq_misses::cpu0.data            1                       # number of StoreCondReq misses
system.cpu0.dcache.StoreCondReq_misses::total            1                       # number of StoreCondReq misses
system.cpu0.dcache.demand_misses::cpu0.data         2603                       # number of demand (read+write) misses
system.cpu0.dcache.demand_misses::total          2603                       # number of demand (read+write) misses
system.cpu0.dcache.overall_misses::cpu0.data         2603                       # number of overall misses
system.cpu0.dcache.overall_misses::total         2603                       # number of overall misses
system.cpu0.dcache.ReadReq_miss_latency::cpu0.data      9774490                       # number of ReadReq miss cycles
system.cpu0.dcache.ReadReq_miss_latency::total      9774490                       # number of ReadReq miss cycles
system.cpu0.dcache.WriteReq_miss_latency::cpu0.data    119958000                       # number of WriteReq miss cycles
system.cpu0.dcache.WriteReq_miss_latency::total    119958000                       # number of WriteReq miss cycles
system.cpu0.dcache.LoadLockedReq_miss_latency::cpu0.data       133500                       # number of LoadLockedReq miss cycles
system.cpu0.dcache.LoadLockedReq_miss_latency::total       133500                       # number of LoadLockedReq miss cycles
system.cpu0.dcache.StoreCondReq_miss_latency::cpu0.data         7500                       # number of StoreCondReq miss cycles
system.cpu0.dcache.StoreCondReq_miss_latency::total         7500                       # number of StoreCondReq miss cycles
system.cpu0.dcache.demand_miss_latency::cpu0.data    129732490                       # number of demand (read+write) miss cycles
system.cpu0.dcache.demand_miss_latency::total    129732490                       # number of demand (read+write) miss cycles
system.cpu0.dcache.overall_miss_latency::cpu0.data    129732490                       # number of overall miss cycles
system.cpu0.dcache.overall_miss_latency::total    129732490                       # number of overall miss cycles
system.cpu0.dcache.ReadReq_accesses::cpu0.data     34315069                       # number of ReadReq accesses(hits+misses)
system.cpu0.dcache.ReadReq_accesses::total     34315069                       # number of ReadReq accesses(hits+misses)
system.cpu0.dcache.WriteReq_accesses::cpu0.data     34316353                       # number of WriteReq accesses(hits+misses)
system.cpu0.dcache.WriteReq_accesses::total     34316353                       # number of WriteReq accesses(hits+misses)
system.cpu0.dcache.LoadLockedReq_accesses::cpu0.data           25                       # number of LoadLockedReq accesses(hits+misses)
system.cpu0.dcache.LoadLockedReq_accesses::total           25                       # number of LoadLockedReq accesses(hits+misses)
system.cpu0.dcache.StoreCondReq_accesses::cpu0.data           25                       # number of StoreCondReq accesses(hits+misses)
system.cpu0.dcache.StoreCondReq_accesses::total           25                       # number of StoreCondReq accesses(hits+misses)
system.cpu0.dcache.demand_accesses::cpu0.data     68631422                       # number of demand (read+write) accesses
system.cpu0.dcache.demand_accesses::total     68631422                       # number of demand (read+write) accesses
system.cpu0.dcache.overall_accesses::cpu0.data     68631422                       # number of overall (read+write) accesses
system.cpu0.dcache.overall_accesses::total     68631422                       # number of overall (read+write) accesses
system.cpu0.dcache.ReadReq_miss_rate::cpu0.data     0.000006                       # miss rate for ReadReq accesses
system.cpu0.dcache.ReadReq_miss_rate::total     0.000006                       # miss rate for ReadReq accesses
system.cpu0.dcache.WriteReq_miss_rate::cpu0.data     0.000070                       # miss rate for WriteReq accesses
system.cpu0.dcache.WriteReq_miss_rate::total     0.000070                       # miss rate for WriteReq accesses
system.cpu0.dcache.LoadLockedReq_miss_rate::cpu0.data     0.120000                       # miss rate for LoadLockedReq accesses
system.cpu0.dcache.LoadLockedReq_miss_rate::total     0.120000                       # miss rate for LoadLockedReq accesses
system.cpu0.dcache.StoreCondReq_miss_rate::cpu0.data     0.040000                       # miss rate for StoreCondReq accesses
system.cpu0.dcache.StoreCondReq_miss_rate::total     0.040000                       # miss rate for StoreCondReq accesses
system.cpu0.dcache.demand_miss_rate::cpu0.data     0.000038                       # miss rate for demand accesses
system.cpu0.dcache.demand_miss_rate::total     0.000038                       # miss rate for demand accesses
system.cpu0.dcache.overall_miss_rate::cpu0.data     0.000038                       # miss rate for overall accesses
system.cpu0.dcache.overall_miss_rate::total     0.000038                       # miss rate for overall accesses
system.cpu0.dcache.ReadReq_avg_miss_latency::cpu0.data 45462.744186                       # average ReadReq miss latency
system.cpu0.dcache.ReadReq_avg_miss_latency::total 45462.744186                       # average ReadReq miss latency
system.cpu0.dcache.WriteReq_avg_miss_latency::cpu0.data 50233.668342                       # average WriteReq miss latency
system.cpu0.dcache.WriteReq_avg_miss_latency::total 50233.668342                       # average WriteReq miss latency
system.cpu0.dcache.LoadLockedReq_avg_miss_latency::cpu0.data        44500                       # average LoadLockedReq miss latency
system.cpu0.dcache.LoadLockedReq_avg_miss_latency::total        44500                       # average LoadLockedReq miss latency
system.cpu0.dcache.StoreCondReq_avg_miss_latency::cpu0.data         7500                       # average StoreCondReq miss latency
system.cpu0.dcache.StoreCondReq_avg_miss_latency::total         7500                       # average StoreCondReq miss latency
system.cpu0.dcache.demand_avg_miss_latency::cpu0.data 49839.604303                       # average overall miss latency
system.cpu0.dcache.demand_avg_miss_latency::total 49839.604303                       # average overall miss latency
system.cpu0.dcache.overall_avg_miss_latency::cpu0.data 49839.604303                       # average overall miss latency
system.cpu0.dcache.overall_avg_miss_latency::total 49839.604303                       # average overall miss latency
system.cpu0.dcache.blocked_cycles::no_mshrs            0                       # number of cycles access was blocked
system.cpu0.dcache.blocked_cycles::no_targets            0                       # number of cycles access was blocked
system.cpu0.dcache.blocked::no_mshrs                0                       # number of cycles access was blocked
system.cpu0.dcache.blocked::no_targets              0                       # number of cycles access was blocked
system.cpu0.dcache.avg_blocked_cycles::no_mshrs          nan                       # average number of cycles each access was blocked
system.cpu0.dcache.avg_blocked_cycles::no_targets          nan                       # average number of cycles each access was blocked
system.cpu0.dcache.fast_writes                      0                       # number of fast writes performed
system.cpu0.dcache.cache_copies                     0                       # number of cache copies performed
system.cpu0.dcache.writebacks::writebacks           14                       # number of writebacks
system.cpu0.dcache.writebacks::total               14                       # number of writebacks
system.cpu0.dcache.ReadReq_mshr_hits::cpu0.data           76                       # number of ReadReq MSHR hits
system.cpu0.dcache.ReadReq_mshr_hits::total           76                       # number of ReadReq MSHR hits
system.cpu0.dcache.WriteReq_mshr_hits::cpu0.data         2200                       # number of WriteReq MSHR hits
system.cpu0.dcache.WriteReq_mshr_hits::total         2200                       # number of WriteReq MSHR hits
system.cpu0.dcache.LoadLockedReq_mshr_hits::cpu0.data            3                       # number of LoadLockedReq MSHR hits
system.cpu0.dcache.LoadLockedReq_mshr_hits::total            3                       # number of LoadLockedReq MSHR hits
system.cpu0.dcache.demand_mshr_hits::cpu0.data         2276                       # number of demand (read+write) MSHR hits
system.cpu0.dcache.demand_mshr_hits::total         2276                       # number of demand (read+write) MSHR hits
system.cpu0.dcache.overall_mshr_hits::cpu0.data         2276                       # number of overall MSHR hits
system.cpu0.dcache.overall_mshr_hits::total         2276                       # number of overall MSHR hits
system.cpu0.dcache.ReadReq_mshr_misses::cpu0.data          139                       # number of ReadReq MSHR misses
system.cpu0.dcache.ReadReq_mshr_misses::total          139                       # number of ReadReq MSHR misses
system.cpu0.dcache.WriteReq_mshr_misses::cpu0.data          188                       # number of WriteReq MSHR misses
system.cpu0.dcache.WriteReq_mshr_misses::total          188                       # number of WriteReq MSHR misses
system.cpu0.dcache.StoreCondReq_mshr_misses::cpu0.data            1                       # number of StoreCondReq MSHR misses
system.cpu0.dcache.StoreCondReq_mshr_misses::total            1                       # number of StoreCondReq MSHR misses
system.cpu0.dcache.demand_mshr_misses::cpu0.data          327                       # number of demand (read+write) MSHR misses
system.cpu0.dcache.demand_mshr_misses::total          327                       # number of demand (read+write) MSHR misses
system.cpu0.dcache.overall_mshr_misses::cpu0.data          327                       # number of overall MSHR misses
system.cpu0.dcache.overall_mshr_misses::total          327                       # number of overall MSHR misses
system.cpu0.dcache.ReadReq_mshr_miss_latency::cpu0.data      6142506                       # number of ReadReq MSHR miss cycles
system.cpu0.dcache.ReadReq_mshr_miss_latency::total      6142506                       # number of ReadReq MSHR miss cycles
system.cpu0.dcache.WriteReq_mshr_miss_latency::cpu0.data     10300000                       # number of WriteReq MSHR miss cycles
system.cpu0.dcache.WriteReq_mshr_miss_latency::total     10300000                       # number of WriteReq MSHR miss cycles
system.cpu0.dcache.StoreCondReq_mshr_miss_latency::cpu0.data         4500                       # number of StoreCondReq MSHR miss cycles
system.cpu0.dcache.StoreCondReq_mshr_miss_latency::total         4500                       # number of StoreCondReq MSHR miss cycles
system.cpu0.dcache.demand_mshr_miss_latency::cpu0.data     16442506                       # number of demand (read+write) MSHR miss cycles
system.cpu0.dcache.demand_mshr_miss_latency::total     16442506                       # number of demand (read+write) MSHR miss cycles
system.cpu0.dcache.overall_mshr_miss_latency::cpu0.data     16442506                       # number of overall MSHR miss cycles
system.cpu0.dcache.overall_mshr_miss_latency::total     16442506                       # number of overall MSHR miss cycles
system.cpu0.dcache.ReadReq_mshr_miss_rate::cpu0.data     0.000004                       # mshr miss rate for ReadReq accesses
system.cpu0.dcache.ReadReq_mshr_miss_rate::total     0.000004                       # mshr miss rate for ReadReq accesses
system.cpu0.dcache.WriteReq_mshr_miss_rate::cpu0.data     0.000005                       # mshr miss rate for WriteReq accesses
system.cpu0.dcache.WriteReq_mshr_miss_rate::total     0.000005                       # mshr miss rate for WriteReq accesses
system.cpu0.dcache.StoreCondReq_mshr_miss_rate::cpu0.data     0.040000                       # mshr miss rate for StoreCondReq accesses
system.cpu0.dcache.StoreCondReq_mshr_miss_rate::total     0.040000                       # mshr miss rate for StoreCondReq accesses
system.cpu0.dcache.demand_mshr_miss_rate::cpu0.data     0.000005                       # mshr miss rate for demand accesses
system.cpu0.dcache.demand_mshr_miss_rate::total     0.000005                       # mshr miss rate for demand accesses
system.cpu0.dcache.overall_mshr_miss_rate::cpu0.data     0.000005                       # mshr miss rate for overall accesses
system.cpu0.dcache.overall_mshr_miss_rate::total     0.000005                       # mshr miss rate for overall accesses
system.cpu0.dcache.ReadReq_avg_mshr_miss_latency::cpu0.data 44190.690647                       # average ReadReq mshr miss latency
system.cpu0.dcache.ReadReq_avg_mshr_miss_latency::total 44190.690647                       # average ReadReq mshr miss latency
system.cpu0.dcache.WriteReq_avg_mshr_miss_latency::cpu0.data 54787.234043                       # average WriteReq mshr miss latency
system.cpu0.dcache.WriteReq_avg_mshr_miss_latency::total 54787.234043                       # average WriteReq mshr miss latency
system.cpu0.dcache.StoreCondReq_avg_mshr_miss_latency::cpu0.data         4500                       # average StoreCondReq mshr miss latency
system.cpu0.dcache.StoreCondReq_avg_mshr_miss_latency::total         4500                       # average StoreCondReq mshr miss latency
system.cpu0.dcache.demand_avg_mshr_miss_latency::cpu0.data 50282.892966                       # average overall mshr miss latency
system.cpu0.dcache.demand_avg_mshr_miss_latency::total 50282.892966                       # average overall mshr miss latency
system.cpu0.dcache.overall_avg_mshr_miss_latency::cpu0.data 50282.892966                       # average overall mshr miss latency
system.cpu0.dcache.overall_avg_mshr_miss_latency::total 50282.892966                       # average overall mshr miss latency
system.cpu0.dcache.no_allocate_misses               0                       # Number of misses that were no-allocate
system.cpu0.icache.tags.replacements               62                       # number of replacements
system.cpu0.icache.tags.tagsinuse          288.952753                       # Cycle average of tags in use
system.cpu0.icache.tags.total_refs               1562                       # Total number of references to valid blocks.
system.cpu0.icache.tags.sampled_refs              382                       # Sample count of references to valid blocks.
system.cpu0.icache.tags.avg_refs             4.089005                       # Average number of references to valid blocks.
system.cpu0.icache.tags.warmup_cycle                0                       # Cycle when the warmup percentage was hit.
system.cpu0.icache.tags.occ_blocks::cpu0.inst   288.952753                       # Average occupied blocks per requestor
system.cpu0.icache.tags.occ_percent::cpu0.inst     0.564361                       # Average percentage of cache occupancy
system.cpu0.icache.tags.occ_percent::total     0.564361                       # Average percentage of cache occupancy
system.cpu0.icache.tags.occ_task_id_blocks::1024          320                       # Occupied blocks per task id
system.cpu0.icache.tags.age_task_id_blocks_1024::0           44                       # Occupied blocks per task id
system.cpu0.icache.tags.age_task_id_blocks_1024::4          276                       # Occupied blocks per task id
system.cpu0.icache.tags.occ_task_id_percent::1024     0.625000                       # Percentage of cache occupancy per task id
system.cpu0.icache.tags.tag_accesses             4388                       # Number of tag accesses
system.cpu0.icache.tags.data_accesses            4388                       # Number of data accesses
system.cpu0.icache.ReadReq_hits::cpu0.inst         1562                       # number of ReadReq hits
system.cpu0.icache.ReadReq_hits::total           1562                       # number of ReadReq hits
system.cpu0.icache.demand_hits::cpu0.inst         1562                       # number of demand (read+write) hits
system.cpu0.icache.demand_hits::total            1562                       # number of demand (read+write) hits
system.cpu0.icache.overall_hits::cpu0.inst         1562                       # number of overall hits
system.cpu0.icache.overall_hits::total           1562                       # number of overall hits
system.cpu0.icache.ReadReq_misses::cpu0.inst          441                       # number of ReadReq misses
system.cpu0.icache.ReadReq_misses::total          441                       # number of ReadReq misses
system.cpu0.icache.demand_misses::cpu0.inst          441                       # number of demand (read+write) misses
system.cpu0.icache.demand_misses::total           441                       # number of demand (read+write) misses
system.cpu0.icache.overall_misses::cpu0.inst          441                       # number of overall misses
system.cpu0.icache.overall_misses::total          441                       # number of overall misses
system.cpu0.icache.ReadReq_miss_latency::cpu0.inst     22872498                       # number of ReadReq miss cycles
system.cpu0.icache.ReadReq_miss_latency::total     22872498                       # number of ReadReq miss cycles
system.cpu0.icache.demand_miss_latency::cpu0.inst     22872498                       # number of demand (read+write) miss cycles
system.cpu0.icache.demand_miss_latency::total     22872498                       # number of demand (read+write) miss cycles
system.cpu0.icache.overall_miss_latency::cpu0.inst     22872498                       # number of overall miss cycles
system.cpu0.icache.overall_miss_latency::total     22872498                       # number of overall miss cycles
system.cpu0.icache.ReadReq_accesses::cpu0.inst         2003                       # number of ReadReq accesses(hits+misses)
system.cpu0.icache.ReadReq_accesses::total         2003                       # number of ReadReq accesses(hits+misses)
system.cpu0.icache.demand_accesses::cpu0.inst         2003                       # number of demand (read+write) accesses
system.cpu0.icache.demand_accesses::total         2003                       # number of demand (read+write) accesses
system.cpu0.icache.overall_accesses::cpu0.inst         2003                       # number of overall (read+write) accesses
system.cpu0.icache.overall_accesses::total         2003                       # number of overall (read+write) accesses
[...]
system.l2.demand_mshr_miss_rate::cpu4.inst     0.050909                       # mshr miss rate for demand accesses
system.l2.demand_mshr_miss_rate::cpu4.data     0.568484                       # mshr miss rate for demand accesses
system.l2.demand_mshr_miss_rate::total       0.563759                       # mshr miss rate for demand accesses
system.l2.overall_mshr_miss_rate::cpu0.inst     0.905759                       # mshr miss rate for overall accesses
system.l2.overall_mshr_miss_rate::cpu0.data     0.880126                       # mshr miss rate for overall accesses
system.l2.overall_mshr_miss_rate::cpu1.inst     0.046713                       # mshr miss rate for overall accesses
system.l2.overall_mshr_miss_rate::cpu1.data     0.564539                       # mshr miss rate for overall accesses
system.l2.overall_mshr_miss_rate::cpu2.inst     0.028185                       # mshr miss rate for overall accesses
system.l2.overall_mshr_miss_rate::cpu2.data     0.577847                       # mshr miss rate for overall accesses
system.l2.overall_mshr_miss_rate::cpu3.inst     0.072225                       # mshr miss rate for overall accesses
system.l2.overall_mshr_miss_rate::cpu3.data     0.575479                       # mshr miss rate for overall accesses
system.l2.overall_mshr_miss_rate::cpu4.inst     0.050909                       # mshr miss rate for overall accesses
system.l2.overall_mshr_miss_rate::cpu4.data     0.568484                       # mshr miss rate for overall accesses
system.l2.overall_mshr_miss_rate::total      0.563759                       # mshr miss rate for overall accesses
system.l2.ReadReq_avg_mshr_miss_latency::cpu0.inst 41041.907514                       # average ReadReq mshr miss latency
system.l2.ReadReq_avg_mshr_miss_latency::cpu0.data 42242.105263                       # average ReadReq mshr miss latency
system.l2.ReadReq_avg_mshr_miss_latency::cpu1.inst 40672.839506                       # average ReadReq mshr miss latency
system.l2.ReadReq_avg_mshr_miss_latency::cpu1.data 40525.859101                       # average ReadReq mshr miss latency
system.l2.ReadReq_avg_mshr_miss_latency::cpu2.inst        40580                       # average ReadReq mshr miss latency
system.l2.ReadReq_avg_mshr_miss_latency::cpu2.data 40527.045950                       # average ReadReq mshr miss latency
system.l2.ReadReq_avg_mshr_miss_latency::cpu3.inst 40922.764228                       # average ReadReq mshr miss latency
system.l2.ReadReq_avg_mshr_miss_latency::cpu3.data 40530.462922                       # average ReadReq mshr miss latency
system.l2.ReadReq_avg_mshr_miss_latency::cpu4.inst 40666.666667                       # average ReadReq mshr miss latency
system.l2.ReadReq_avg_mshr_miss_latency::cpu4.data 40531.102016                       # average ReadReq mshr miss latency
system.l2.ReadReq_avg_mshr_miss_latency::total 40530.404202                       # average ReadReq mshr miss latency
system.l2.UpgradeReq_avg_mshr_miss_latency::cpu0.data        42250                       # average UpgradeReq mshr miss latency
system.l2.UpgradeReq_avg_mshr_miss_latency::cpu1.data 40535.462527                       # average UpgradeReq mshr miss latency
system.l2.UpgradeReq_avg_mshr_miss_latency::cpu2.data 40538.033075                       # average UpgradeReq mshr miss latency
system.l2.UpgradeReq_avg_mshr_miss_latency::cpu3.data 40537.625691                       # average UpgradeReq mshr miss latency
system.l2.UpgradeReq_avg_mshr_miss_latency::cpu4.data 40544.060531                       # average UpgradeReq mshr miss latency
system.l2.UpgradeReq_avg_mshr_miss_latency::total 40538.713303                       # average UpgradeReq mshr miss latency
system.l2.SCUpgradeReq_avg_mshr_miss_latency::cpu1.data 40515.102463                       # average SCUpgradeReq mshr miss latency
system.l2.SCUpgradeReq_avg_mshr_miss_latency::cpu2.data 40517.201915                       # average SCUpgradeReq mshr miss latency
system.l2.SCUpgradeReq_avg_mshr_miss_latency::cpu3.data 40517.199068                       # average SCUpgradeReq mshr miss latency
system.l2.SCUpgradeReq_avg_mshr_miss_latency::cpu4.data 40516.600662                       # average SCUpgradeReq mshr miss latency
system.l2.SCUpgradeReq_avg_mshr_miss_latency::total 40516.537402                       # average SCUpgradeReq mshr miss latency
system.l2.ReadExReq_avg_mshr_miss_latency::cpu0.data 40812.500000                       # average ReadExReq mshr miss latency
system.l2.ReadExReq_avg_mshr_miss_latency::cpu1.data 40602.672293                       # average ReadExReq mshr miss latency
system.l2.ReadExReq_avg_mshr_miss_latency::cpu2.data 40631.215470                       # average ReadExReq mshr miss latency
system.l2.ReadExReq_avg_mshr_miss_latency::cpu3.data 40621.883657                       # average ReadExReq mshr miss latency
system.l2.ReadExReq_avg_mshr_miss_latency::cpu4.data 40623.961219                       # average ReadExReq mshr miss latency
system.l2.ReadExReq_avg_mshr_miss_latency::total 40631.570356                       # average ReadExReq mshr miss latency
system.l2.demand_avg_mshr_miss_latency::cpu0.inst 41041.907514                       # average overall mshr miss latency
system.l2.demand_avg_mshr_miss_latency::cpu0.data 41299.283154                       # average overall mshr miss latency
system.l2.demand_avg_mshr_miss_latency::cpu1.inst 40672.839506                       # average overall mshr miss latency
system.l2.demand_avg_mshr_miss_latency::cpu1.data 40526.787992                       # average overall mshr miss latency
system.l2.demand_avg_mshr_miss_latency::cpu2.inst        40580                       # average overall mshr miss latency
system.l2.demand_avg_mshr_miss_latency::cpu2.data 40528.333618                       # average overall mshr miss latency
system.l2.demand_avg_mshr_miss_latency::cpu3.inst 40922.764228                       # average overall mshr miss latency
system.l2.demand_avg_mshr_miss_latency::cpu3.data 40531.503136                       # average overall mshr miss latency
system.l2.demand_avg_mshr_miss_latency::cpu4.inst 40666.666667                       # average overall mshr miss latency
system.l2.demand_avg_mshr_miss_latency::cpu4.data 40532.222222                       # average overall mshr miss latency
system.l2.demand_avg_mshr_miss_latency::total 40531.686614                       # average overall mshr miss latency
system.l2.overall_avg_mshr_miss_latency::cpu0.inst 41041.907514                       # average overall mshr miss latency
system.l2.overall_avg_mshr_miss_latency::cpu0.data 41299.283154                       # average overall mshr miss latency
system.l2.overall_avg_mshr_miss_latency::cpu1.inst 40672.839506                       # average overall mshr miss latency
system.l2.overall_avg_mshr_miss_latency::cpu1.data 40526.787992                       # average overall mshr miss latency
system.l2.overall_avg_mshr_miss_latency::cpu2.inst        40580                       # average overall mshr miss latency
system.l2.overall_avg_mshr_miss_latency::cpu2.data 40528.333618                       # average overall mshr miss latency
system.l2.overall_avg_mshr_miss_latency::cpu3.inst 40922.764228                       # average overall mshr miss latency
system.l2.overall_avg_mshr_miss_latency::cpu3.data 40531.503136                       # average overall mshr miss latency
system.l2.overall_avg_mshr_miss_latency::cpu4.inst 40666.666667                       # average overall mshr miss latency
system.l2.overall_avg_mshr_miss_latency::cpu4.data 40532.222222                       # average overall mshr miss latency
system.l2.overall_avg_mshr_miss_latency::total 40531.686614                       # average overall mshr miss latency
system.l2.no_allocate_misses                        0                       # Number of misses that were no-allocate
system.membus.trans_dist::ReadReq              238569                       # Transaction distribution
system.membus.trans_dist::ReadResp             238569                       # Transaction distribution
system.membus.trans_dist::Writeback              2761                       # Transaction distribution
system.membus.trans_dist::UpgradeReq           519083                       # Transaction distribution
system.membus.trans_dist::SCUpgradeReq         446376                       # Transaction distribution
system.membus.trans_dist::UpgradeResp          320981                       # Transaction distribution
system.membus.trans_dist::ReadExReq              3066                       # Transaction distribution
system.membus.trans_dist::ReadExResp             3060                       # Transaction distribution
system.membus.pkt_count_system.l2.mem_side::system.physmem.port      1772465                       # Packet count per connected master and slave (bytes)
system.membus.pkt_count::total                1772465                       # Packet count per connected master and slave (bytes)
system.membus.pkt_size_system.l2.mem_side::system.physmem.port     15640960                       # Cumulative packet size per connected master and slave (bytes)
system.membus.pkt_size::total                15640960                       # Cumulative packet size per connected master and slave (bytes)
system.membus.snoops                           644484                       # Total snoops (count)
system.membus.snoop_fanout::samples           1212462                       # Request fanout histogram
system.membus.snoop_fanout::mean                    0                       # Request fanout histogram
system.membus.snoop_fanout::stdev                   0                       # Request fanout histogram
system.membus.snoop_fanout::underflows              0      0.00%      0.00% # Request fanout histogram
system.membus.snoop_fanout::0                 1212462    100.00%    100.00% # Request fanout histogram
system.membus.snoop_fanout::1                       0      0.00%    100.00% # Request fanout histogram
system.membus.snoop_fanout::overflows               0      0.00%    100.00% # Request fanout histogram
system.membus.snoop_fanout::min_value               0                       # Request fanout histogram
system.membus.snoop_fanout::max_value               0                       # Request fanout histogram
system.membus.snoop_fanout::total             1212462                       # Request fanout histogram
system.membus.reqLayer0.occupancy           855635711                       # Layer occupancy (ticks)
system.membus.reqLayer0.utilization               1.2                       # Layer utilization (%)
system.membus.respLayer1.occupancy         1801727531                       # Layer occupancy (ticks)
system.membus.respLayer1.utilization              2.6                       # Layer utilization (%)
system.tol2bus.trans_dist::ReadReq            1885420                       # Transaction distribution
system.tol2bus.trans_dist::ReadResp           1885253                       # Transaction distribution
system.tol2bus.trans_dist::ReadRespWithInvalidate          167                       # Transaction distribution
system.tol2bus.trans_dist::Writeback             9718                       # Transaction distribution
system.tol2bus.trans_dist::UpgradeReq          519086                       # Transaction distribution
system.tol2bus.trans_dist::SCUpgradeReq        446379                       # Transaction distribution
system.tol2bus.trans_dist::UpgradeResp         965465                       # Transaction distribution
system.tol2bus.trans_dist::SCUpgradeFailReq        93600                       # Transaction distribution
system.tol2bus.trans_dist::UpgradeFailResp        93600                       # Transaction distribution
system.tol2bus.trans_dist::ReadExReq             4219                       # Transaction distribution
system.tol2bus.trans_dist::ReadExResp            4219                       # Transaction distribution
system.tol2bus.pkt_count_system.cpu0.icache.mem_side::system.l2.cpu_side          764                       # Packet count per connected master and slave (bytes)
system.tol2bus.pkt_count_system.cpu0.dcache.mem_side::system.l2.cpu_side          662                       # Packet count per connected master and slave (bytes)
system.tol2bus.pkt_count_system.cpu1.icache.mem_side::system.l2.cpu_side         3468                       # Packet count per connected master and slave (bytes)
system.tol2bus.pkt_count_system.cpu1.dcache.mem_side::system.l2.cpu_side       926748                       # Packet count per connected master and slave (bytes)
system.tol2bus.pkt_count_system.cpu2.icache.mem_side::system.l2.cpu_side         3548                       # Packet count per connected master and slave (bytes)
system.tol2bus.pkt_count_system.cpu2.dcache.mem_side::system.l2.cpu_side       921866                       # Packet count per connected master and slave (bytes)
system.tol2bus.pkt_count_system.cpu3.icache.mem_side::system.l2.cpu_side         3406                       # Packet count per connected master and slave (bytes)
system.tol2bus.pkt_count_system.cpu3.dcache.mem_side::system.l2.cpu_side       947145                       # Packet count per connected master and slave (bytes)
system.tol2bus.pkt_count_system.cpu4.icache.mem_side::system.l2.cpu_side         3300                       # Packet count per connected master and slave (bytes)
system.tol2bus.pkt_count_system.cpu4.dcache.mem_side::system.l2.cpu_side       897111                       # Packet count per connected master and slave (bytes)
system.tol2bus.pkt_count::total               3708018                       # Packet count per connected master and slave (bytes)
system.tol2bus.pkt_size_system.cpu0.icache.mem_side::system.l2.cpu_side        24448                       # Cumulative packet size per connected master and slave (bytes)
system.tol2bus.pkt_size_system.cpu0.dcache.mem_side::system.l2.cpu_side        21184                       # Cumulative packet size per connected master and slave (bytes)
system.tol2bus.pkt_size_system.cpu1.icache.mem_side::system.l2.cpu_side       110976                       # Cumulative packet size per connected master and slave (bytes)
system.tol2bus.pkt_size_system.cpu1.dcache.mem_side::system.l2.cpu_side      6813760                       # Cumulative packet size per connected master and slave (bytes)
system.tol2bus.pkt_size_system.cpu2.icache.mem_side::system.l2.cpu_side       113536                       # Cumulative packet size per connected master and slave (bytes)
system.tol2bus.pkt_size_system.cpu2.dcache.mem_side::system.l2.cpu_side      6634304                       # Cumulative packet size per connected master and slave (bytes)
system.tol2bus.pkt_size_system.cpu3.icache.mem_side::system.l2.cpu_side       108992                       # Cumulative packet size per connected master and slave (bytes)
system.tol2bus.pkt_size_system.cpu3.dcache.mem_side::system.l2.cpu_side      7213952                       # Cumulative packet size per connected master and slave (bytes)
system.tol2bus.pkt_size_system.cpu4.icache.mem_side::system.l2.cpu_side       105600                       # Cumulative packet size per connected master and slave (bytes)
system.tol2bus.pkt_size_system.cpu4.dcache.mem_side::system.l2.cpu_side      6906176                       # Cumulative packet size per connected master and slave (bytes)
system.tol2bus.pkt_size::total               28052928                       # Cumulative packet size per connected master and slave (bytes)
system.tol2bus.snoops                         2199108                       # Total snoops (count)
system.tol2bus.snoop_fanout::samples          2958422                       # Request fanout histogram
system.tol2bus.snoop_fanout::mean                   9                       # Request fanout histogram
system.tol2bus.snoop_fanout::stdev                  0                       # Request fanout histogram
system.tol2bus.snoop_fanout::underflows             0      0.00%      0.00% # Request fanout histogram
system.tol2bus.snoop_fanout::0                      0      0.00%      0.00% # Request fanout histogram
system.tol2bus.snoop_fanout::1                      0      0.00%      0.00% # Request fanout histogram
system.tol2bus.snoop_fanout::2                      0      0.00%      0.00% # Request fanout histogram
system.tol2bus.snoop_fanout::3                      0      0.00%      0.00% # Request fanout histogram
system.tol2bus.snoop_fanout::4                      0      0.00%      0.00% # Request fanout histogram
system.tol2bus.snoop_fanout::5                      0      0.00%      0.00% # Request fanout histogram
system.tol2bus.snoop_fanout::6                      0      0.00%      0.00% # Request fanout histogram
system.tol2bus.snoop_fanout::7                      0      0.00%      0.00% # Request fanout histogram
system.tol2bus.snoop_fanout::8                      0      0.00%      0.00% # Request fanout histogram
system.tol2bus.snoop_fanout::9                2958422    100.00%    100.00% # Request fanout histogram
system.tol2bus.snoop_fanout::10                     0      0.00%    100.00% # Request fanout histogram
system.tol2bus.snoop_fanout::overflows              0      0.00%    100.00% # Request fanout histogram
system.tol2bus.snoop_fanout::min_value              9                       # Request fanout histogram
system.tol2bus.snoop_fanout::max_value              9                       # Request fanout histogram
system.tol2bus.snoop_fanout::total            2958422                       # Request fanout histogram
system.tol2bus.reqLayer0.occupancy         1495936948                       # Layer occupancy (ticks)
system.tol2bus.reqLayer0.utilization              2.2                       # Layer utilization (%)
system.tol2bus.respLayer0.occupancy            573998                       # Layer occupancy (ticks)
system.tol2bus.respLayer0.utilization             0.0                       # Layer utilization (%)
system.tol2bus.respLayer1.occupancy            489994                       # Layer occupancy (ticks)
system.tol2bus.respLayer1.utilization             0.0                       # Layer utilization (%)
system.tol2bus.respLayer4.occupancy           2635908                       # Layer occupancy (ticks)
system.tol2bus.respLayer4.utilization             0.0                       # Layer utilization (%)
system.tol2bus.respLayer5.occupancy         885475388                       # Layer occupancy (ticks)
system.tol2bus.respLayer5.utilization             1.3                       # Layer utilization (%)
system.tol2bus.respLayer8.occupancy           2694380                       # Layer occupancy (ticks)
system.tol2bus.respLayer8.utilization             0.0                       # Layer utilization (%)
system.tol2bus.respLayer9.occupancy         881743664                       # Layer occupancy (ticks)
system.tol2bus.respLayer9.utilization             1.3                       # Layer utilization (%)
system.tol2bus.respLayer12.occupancy          2587396                       # Layer occupancy (ticks)
system.tol2bus.respLayer12.utilization            0.0                       # Layer utilization (%)
system.tol2bus.respLayer13.occupancy        884410413                       # Layer occupancy (ticks)
system.tol2bus.respLayer13.utilization            1.3                       # Layer utilization (%)
system.tol2bus.respLayer16.occupancy          2506388                       # Layer occupancy (ticks)
system.tol2bus.respLayer16.utilization            0.0                       # Layer utilization (%)
system.tol2bus.respLayer17.occupancy        841375368                       # Layer occupancy (ticks)
system.tol2bus.respLayer17.utilization            1.2                       # Layer utilization (%)

---------- End Simulation Statistics   ----------
