
---------- Begin Simulation Statistics ----------
sim_seconds                                  0.052035                       # Number of seconds simulated
sim_ticks                                 52035173000                       # Number of ticks simulated
final_tick                                52035173000                       # Number of ticks from beginning of simulation (restored from checkpoints and never reset)
sim_freq                                 1000000000000                       # Frequency of simulated ticks
host_inst_rate                                 181923                       # Simulator instruction rate (inst/s)
host_op_rate                                   190324                       # Simulator op (including micro ops) rate (op/s)
host_tick_rate                               45863782                       # Simulator tick rate (ticks/s)
host_mem_usage                                 685056                       # Number of bytes of host memory used
host_seconds                                  1134.56                       # Real time elapsed on the host
sim_insts                                   206402551                       # Number of instructions simulated
sim_ops                                     215933827                       # Number of ops (including micro ops) simulated
system.voltage_domain.voltage                       1                       # Voltage in Volts
system.clk_domain.clock                          1000                       # Clock period in ticks
system.physmem.bytes_read::cpu0.inst            22720                       # Number of bytes read from this memory
system.physmem.bytes_read::cpu0.data            66624                       # Number of bytes read from this memory
system.physmem.bytes_read::cpu1.inst             9600                       # Number of bytes read from this memory
system.physmem.bytes_read::cpu1.data            98496                       # Number of bytes read from this memory
system.physmem.bytes_read::cpu2.inst            10304                       # Number of bytes read from this memory
system.physmem.bytes_read::cpu2.data            99840                       # Number of bytes read from this memory
system.physmem.bytes_read::total               307584                       # Number of bytes read from this memory
system.physmem.bytes_inst_read::cpu0.inst        22720                       # Number of instructions bytes read from this memory
system.physmem.bytes_inst_read::cpu1.inst         9600                       # Number of instructions bytes read from this memory
system.physmem.bytes_inst_read::cpu2.inst        10304                       # Number of instructions bytes read from this memory
system.physmem.bytes_inst_read::total           42624                       # Number of instructions bytes read from this memory
system.physmem.num_reads::cpu0.inst               355                       # Number of read requests responded to by this memory
system.physmem.num_reads::cpu0.data              1041                       # Number of read requests responded to by this memory
system.physmem.num_reads::cpu1.inst               150                       # Number of read requests responded to by this memory
system.physmem.num_reads::cpu1.data              1539                       # Number of read requests responded to by this memory
system.physmem.num_reads::cpu2.inst               161                       # Number of read requests responded to by this memory
system.physmem.num_reads::cpu2.data              1560                       # Number of read requests responded to by this memory
system.physmem.num_reads::total                  4806                       # Number of read requests responded to by this memory
system.physmem.bw_read::cpu0.inst              436628                       # Total read bandwidth from this memory (bytes/s)
system.physmem.bw_read::cpu0.data             1280365                       # Total read bandwidth from this memory (bytes/s)
system.physmem.bw_read::cpu1.inst              184491                       # Total read bandwidth from this memory (bytes/s)
system.physmem.bw_read::cpu1.data             1892873                       # Total read bandwidth from this memory (bytes/s)
system.physmem.bw_read::cpu2.inst              198020                       # Total read bandwidth from this memory (bytes/s)
system.physmem.bw_read::cpu2.data             1918702                       # Total read bandwidth from this memory (bytes/s)
system.physmem.bw_read::total                 5911079                       # Total read bandwidth from this memory (bytes/s)
system.physmem.bw_inst_read::cpu0.inst         436628                       # Instruction read bandwidth from this memory (bytes/s)
system.physmem.bw_inst_read::cpu1.inst         184491                       # Instruction read bandwidth from this memory (bytes/s)
system.physmem.bw_inst_read::cpu2.inst         198020                       # Instruction read bandwidth from this memory (bytes/s)
system.physmem.bw_inst_read::total             819138                       # Instruction read bandwidth from this memory (bytes/s)
system.physmem.bw_total::cpu0.inst             436628                       # Total bandwidth to/from this memory (bytes/s)
system.physmem.bw_total::cpu0.data            1280365                       # Total bandwidth to/from this memory (bytes/s)
system.physmem.bw_total::cpu1.inst             184491                       # Total bandwidth to/from this memory (bytes/s)
system.physmem.bw_total::cpu1.data            1892873                       # Total bandwidth to/from this memory (bytes/s)
system.physmem.bw_total::cpu2.inst             198020                       # Total bandwidth to/from this memory (bytes/s)
system.physmem.bw_total::cpu2.data            1918702                       # Total bandwidth to/from this memory (bytes/s)
system.physmem.bw_total::total                5911079                       # Total bandwidth to/from this memory (bytes/s)
system.cpu0.branchPred.lookups               26006421                       # Number of BP lookups
system.cpu0.branchPred.condPredicted         26001376                       # Number of conditional branches predicted
system.cpu0.branchPred.condIncorrect              597                       # Number of conditional branches incorrect
system.cpu0.branchPred.BTBLookups            26000618                       # Number of BTB lookups
system.cpu0.branchPred.BTBHits               26000202                       # Number of BTB hits
system.cpu0.branchPred.BTBCorrect                   0                       # Number of correct BTB predictions (this stat may not work properly.
system.cpu0.branchPred.BTBHitPct            99.998400                       # BTB Hit Percentage
system.cpu0.branchPred.usedRAS                   2343                       # Number of times the RAS was used to get a target.
system.cpu0.branchPred.RASInCorrect                62                       # Number of incorrect RAS predictions.
system.cpu0.dstage2_mmu.stage2_tlb.walker.walks            0                       # Table walker walks requested
system.cpu0.dstage2_mmu.stage2_tlb.walker.walkRequestOrigin_Requested::Data            0                       # Table walker requests started/completed, data/inst
system.cpu0.dstage2_mmu.stage2_tlb.walker.walkRequestOrigin_Requested::Inst            0                       # Table walker requests started/completed, data/inst
system.cpu0.dstage2_mmu.stage2_tlb.walker.walkRequestOrigin_Requested::total            0                       # Table walker requests started/completed, data/inst
system.cpu0.dstage2_mmu.stage2_tlb.walker.walkRequestOrigin_Completed::Data            0                       # Table walker requests started/completed, data/inst
system.cpu0.dstage2_mmu.stage2_tlb.walker.walkRequestOrigin_Completed::Inst            0                       # Table walker requests started/completed, data/inst
system.cpu0.dstage2_mmu.stage2_tlb.walker.walkRequestOrigin_Completed::total            0                       # Table walker requests started/completed, data/inst
system.cpu0.dstage2_mmu.stage2_tlb.walker.walkRequestOrigin::total            0                       # Table walker requests started/completed, data/inst
system.cpu0.dstage2_mmu.stage2_tlb.inst_hits            0                       # ITB inst hits
system.cpu0.dstage2_mmu.stage2_tlb.inst_misses            0                       # ITB inst misses
system.cpu0.dstage2_mmu.stage2_tlb.read_hits            0                       # DTB read hits
system.cpu0.dstage2_mmu.stage2_tlb.read_misses            0                       # DTB read misses
system.cpu0.dstage2_mmu.stage2_tlb.write_hits            0                       # DTB write hits
system.cpu0.dstage2_mmu.stage2_tlb.write_misses            0                       # DTB write misses
system.cpu0.dstage2_mmu.stage2_tlb.flush_tlb            0                       # Number of times complete TLB was flushed
system.cpu0.dstage2_mmu.stage2_tlb.flush_tlb_mva            0                       # Number of times TLB was flushed by MVA
system.cpu0.dstage2_mmu.stage2_tlb.flush_tlb_mva_asid            0                       # Number of times TLB was flushed by MVA & ASID
system.cpu0.dstage2_mmu.stage2_tlb.flush_tlb_asid            0                       # Number of times TLB was flushed by ASID
system.cpu0.dstage2_mmu.stage2_tlb.flush_entries            0                       # Number of entries that have been flushed from TLB
system.cpu0.dstage2_mmu.stage2_tlb.align_faults            0                       # Number of TLB faults due to alignment restrictions
system.cpu0.dstage2_mmu.stage2_tlb.prefetch_faults            0                       # Number of TLB faults due to prefetch
system.cpu0.dstage2_mmu.stage2_tlb.domain_faults            0                       # Number of TLB faults due to domain restrictions
system.cpu0.dstage2_mmu.stage2_tlb.perms_faults            0                       # Number of TLB faults due to permissions restrictions
system.cpu0.dstage2_mmu.stage2_tlb.read_accesses            0                       # DTB read accesses
system.cpu0.dstage2_mmu.stage2_tlb.write_accesses            0                       # DTB write accesses
system.cpu0.dstage2_mmu.stage2_tlb.inst_accesses            0                       # ITB inst accesses
system.cpu0.dstage2_mmu.stage2_tlb.hits             0                       # DTB hits
system.cpu0.dstage2_mmu.stage2_tlb.misses            0                       # DTB misses
system.cpu0.dstage2_mmu.stage2_tlb.accesses            0                       # DTB accesses
system.cpu0.dtb.walker.walks                        0                       # Table walker walks requested
system.cpu0.dtb.walker.walkRequestOrigin_Requested::Data            0                       # Table walker requests started/completed, data/inst
system.cpu0.dtb.walker.walkRequestOrigin_Requested::Inst            0                       # Table walker requests started/completed, data/inst
system.cpu0.dtb.walker.walkRequestOrigin_Requested::total            0                       # Table walker requests started/completed, data/inst
system.cpu0.dtb.walker.walkRequestOrigin_Completed::Data            0                       # Table walker requests started/completed, data/inst
system.cpu0.dtb.walker.walkRequestOrigin_Completed::Inst            0                       # Table walker requests started/completed, data/inst
system.cpu0.dtb.walker.walkRequestOrigin_Completed::total            0                       # Table walker requests started/completed, data/inst
system.cpu0.dtb.walker.walkRequestOrigin::total            0                       # Table walker requests started/completed, data/inst
system.cpu0.dtb.inst_hits                           0                       # ITB inst hits
system.cpu0.dtb.inst_misses                         0                       # ITB inst misses
system.cpu0.dtb.read_hits                           0                       # DTB read hits
system.cpu0.dtb.read_misses                         0                       # DTB read misses
system.cpu0.dtb.write_hits                          0                       # DTB write hits
system.cpu0.dtb.write_misses                        0                       # DTB write misses
system.cpu0.dtb.flush_tlb                           0                       # Number of times complete TLB was flushed
system.cpu0.dtb.flush_tlb_mva                       0                       # Number of times TLB was flushed by MVA
system.cpu0.dtb.flush_tlb_mva_asid                  0                       # Number of times TLB was flushed by MVA & ASID
system.cpu0.dtb.flush_tlb_asid                      0                       # Number of times TLB was flushed by ASID
system.cpu0.dtb.flush_entries                       0                       # Number of entries that have been flushed from TLB
system.cpu0.dtb.align_faults                        0                       # Number of TLB faults due to alignment restrictions
system.cpu0.dtb.prefetch_faults                     0                       # Number of TLB faults due to prefetch
system.cpu0.dtb.domain_faults                       0                       # Number of TLB faults due to domain restrictions
system.cpu0.dtb.perms_faults                        0                       # Number of TLB faults due to permissions restrictions
system.cpu0.dtb.read_accesses                       0                       # DTB read accesses
system.cpu0.dtb.write_accesses                      0                       # DTB write accesses
system.cpu0.dtb.inst_accesses                       0                       # ITB inst accesses
system.cpu0.dtb.hits                                0                       # DTB hits
system.cpu0.dtb.misses                              0                       # DTB misses
system.cpu0.dtb.accesses                            0                       # DTB accesses
system.cpu0.istage2_mmu.stage2_tlb.walker.walks            0                       # Table walker walks requested
system.cpu0.istage2_mmu.stage2_tlb.walker.walkRequestOrigin_Requested::Data            0                       # Table walker requests started/completed, data/inst
system.cpu0.istage2_mmu.stage2_tlb.walker.walkRequestOrigin_Requested::Inst            0                       # Table walker requests started/completed, data/inst
system.cpu0.istage2_mmu.stage2_tlb.walker.walkRequestOrigin_Requested::total            0                       # Table walker requests started/completed, data/inst
system.cpu0.istage2_mmu.stage2_tlb.walker.walkRequestOrigin_Completed::Data            0                       # Table walker requests started/completed, data/inst
system.cpu0.istage2_mmu.stage2_tlb.walker.walkRequestOrigin_Completed::Inst            0                       # Table walker requests started/completed, data/inst
system.cpu0.istage2_mmu.stage2_tlb.walker.walkRequestOrigin_Completed::total            0                       # Table walker requests started/completed, data/inst
system.cpu0.istage2_mmu.stage2_tlb.walker.walkRequestOrigin::total            0                       # Table walker requests started/completed, data/inst
system.cpu0.istage2_mmu.stage2_tlb.inst_hits            0                       # ITB inst hits
system.cpu0.istage2_mmu.stage2_tlb.inst_misses            0                       # ITB inst misses
system.cpu0.istage2_mmu.stage2_tlb.read_hits            0                       # DTB read hits
system.cpu0.istage2_mmu.stage2_tlb.read_misses            0                       # DTB read misses
system.cpu0.istage2_mmu.stage2_tlb.write_hits            0                       # DTB write hits
system.cpu0.istage2_mmu.stage2_tlb.write_misses            0                       # DTB write misses
system.cpu0.istage2_mmu.stage2_tlb.flush_tlb            0                       # Number of times complete TLB was flushed
system.cpu0.istage2_mmu.stage2_tlb.flush_tlb_mva            0                       # Number of times TLB was flushed by MVA
system.cpu0.istage2_mmu.stage2_tlb.flush_tlb_mva_asid            0                       # Number of times TLB was flushed by MVA & ASID
system.cpu0.istage2_mmu.stage2_tlb.flush_tlb_asid            0                       # Number of times TLB was flushed by ASID
system.cpu0.istage2_mmu.stage2_tlb.flush_entries            0                       # Number of entries that have been flushed from TLB
system.cpu0.istage2_mmu.stage2_tlb.align_faults            0                       # Number of TLB faults due to alignment restrictions
system.cpu0.istage2_mmu.stage2_tlb.prefetch_faults            0                       # Number of TLB faults due to prefetch
system.cpu0.istage2_mmu.stage2_tlb.domain_faults            0                       # Number of TLB faults due to domain restrictions
system.cpu0.istage2_mmu.stage2_tlb.perms_faults            0                       # Number of TLB faults due to permissions restrictions
system.cpu0.istage2_mmu.stage2_tlb.read_accesses            0                       # DTB read accesses
system.cpu0.istage2_mmu.stage2_tlb.write_accesses            0                       # DTB write accesses
system.cpu0.istage2_mmu.stage2_tlb.inst_accesses            0                       # ITB inst accesses
system.cpu0.istage2_mmu.stage2_tlb.hits             0                       # DTB hits
system.cpu0.istage2_mmu.stage2_tlb.misses            0                       # DTB misses
system.cpu0.istage2_mmu.stage2_tlb.accesses            0                       # DTB accesses
system.cpu0.itb.walker.walks                        0                       # Table walker walks requested
system.cpu0.itb.walker.walkRequestOrigin_Requested::Data            0                       # Table walker requests started/completed, data/inst
system.cpu0.itb.walker.walkRequestOrigin_Requested::Inst            0                       # Table walker requests started/completed, data/inst
system.cpu0.itb.walker.walkRequestOrigin_Requested::total            0                       # Table walker requests started/completed, data/inst
system.cpu0.itb.walker.walkRequestOrigin_Completed::Data            0                       # Table walker requests started/completed, data/inst
system.cpu0.itb.walker.walkRequestOrigin_Completed::Inst            0                       # Table walker requests started/completed, data/inst
system.cpu0.itb.walker.walkRequestOrigin_Completed::total            0                       # Table walker requests started/completed, data/inst
system.cpu0.itb.walker.walkRequestOrigin::total            0                       # Table walker requests started/completed, data/inst
system.cpu0.itb.inst_hits                           0                       # ITB inst hits
system.cpu0.itb.inst_misses                         0                       # ITB inst misses
system.cpu0.itb.read_hits                           0                       # DTB read hits
system.cpu0.itb.read_misses                         0                       # DTB read misses
system.cpu0.itb.write_hits                          0                       # DTB write hits
system.cpu0.itb.write_misses                        0                       # DTB write misses
system.cpu0.itb.flush_tlb                           0                       # Number of times complete TLB was flushed
system.cpu0.itb.flush_tlb_mva                       0                       # Number of times TLB was flushed by MVA
system.cpu0.itb.flush_tlb_mva_asid                  0                       # Number of times TLB was flushed by MVA & ASID
system.cpu0.itb.flush_tlb_asid                      0                       # Number of times TLB was flushed by ASID
system.cpu0.itb.flush_entries                       0                       # Number of entries that have been flushed from TLB
system.cpu0.itb.align_faults                        0                       # Number of TLB faults due to alignment restrictions
system.cpu0.itb.prefetch_faults                     0                       # Number of TLB faults due to prefetch
system.cpu0.itb.domain_faults                       0                       # Number of TLB faults due to domain restrictions
system.cpu0.itb.perms_faults                        0                       # Number of TLB faults due to permissions restrictions
system.cpu0.itb.read_accesses                       0                       # DTB read accesses
system.cpu0.itb.write_accesses                      0                       # DTB write accesses
system.cpu0.itb.inst_accesses                       0                       # ITB inst accesses
system.cpu0.itb.hits                                0                       # DTB hits
system.cpu0.itb.misses                              0                       # DTB misses
system.cpu0.itb.accesses                            0                       # DTB accesses
system.cpu0.workload.num_syscalls               41076                       # Number of system calls
system.cpu0.numCycles                        52035174                       # number of cpu cycles simulated
system.cpu0.numWorkItemsStarted                     0                       # number of work items this cpu started
system.cpu0.numWorkItemsCompleted                   0                       # number of work items this cpu completed
system.cpu0.fetch.icacheStallCycles             13354                       # Number of cycles fetch is stalled on an Icache miss
system.cpu0.fetch.Insts                     130022545                       # Number of instructions fetch has processed
system.cpu0.fetch.Branches                   26006421                       # Number of branches that fetch encountered
system.cpu0.fetch.predictedBranches          26002545                       # Number of branches that fetch has predicted taken
system.cpu0.fetch.Cycles                     52013005                       # Number of cycles fetch has run and was not squashing or blocked
system.cpu0.fetch.SquashCycles                   1449                       # Number of cycles fetch has spent squashing
system.cpu0.fetch.PendingTrapStallCycles          154                       # Number of stall cycles due to pending traps
system.cpu0.fetch.CacheLines                     6709                       # Number of cache lines fetched
system.cpu0.fetch.IcacheSquashes                  261                       # Number of outstanding Icache misses that were squashed
system.cpu0.fetch.rateDist::samples          52027237                       # Number of instructions fetched each cycle (Total)
system.cpu0.fetch.rateDist::mean             2.499208                       # Number of instructions fetched each cycle (Total)
system.cpu0.fetch.rateDist::stdev            0.502071                       # Number of instructions fetched each cycle (Total)
system.cpu0.fetch.rateDist::underflows              0      0.00%      0.00% # Number of instructions fetched each cycle (Total)
system.cpu0.fetch.rateDist::0                   17061      0.03%      0.03% # Number of instructions fetched each cycle (Total)
system.cpu0.fetch.rateDist::1                    2828      0.01%      0.04% # Number of instructions fetched each cycle (Total)
system.cpu0.fetch.rateDist::2                25997981     49.97%     50.01% # Number of instructions fetched each cycle (Total)
system.cpu0.fetch.rateDist::3                26009367     49.99%    100.00% # Number of instructions fetched each cycle (Total)
system.cpu0.fetch.rateDist::overflows               0      0.00%    100.00% # Number of instructions fetched each cycle (Total)
system.cpu0.fetch.rateDist::min_value               0                       # Number of instructions fetched each cycle (Total)
system.cpu0.fetch.rateDist::max_value               3                       # Number of instructions fetched each cycle (Total)
system.cpu0.fetch.rateDist::total            52027237                       # Number of instructions fetched each cycle (Total)
system.cpu0.fetch.branchRate                 0.499785                       # Number of branch fetches per cycle
system.cpu0.fetch.rate                       2.498743                       # Number of inst fetches per cycle
system.cpu0.decode.IdleCycles                   12317                       # Number of cycles decode is idle
system.cpu0.decode.BlockedCycles                 5405                       # Number of cycles decode is blocked
system.cpu0.decode.RunCycles                 52008218                       # Number of cycles decode is running
system.cpu0.decode.UnblockCycles                  773                       # Number of cycles decode is unblocking
system.cpu0.decode.SquashCycles                   524                       # Number of cycles decode is squashing
system.cpu0.decode.BranchResolved                2430                       # Number of times decode resolved a branch
system.cpu0.decode.BranchMispred                  206                       # Number of times decode detected a branch misprediction
system.cpu0.decode.DecodedInsts             130024256                       # Number of instructions handled by decode
system.cpu0.decode.SquashedInsts                  450                       # Number of squashed instructions handled by decode
system.cpu0.rename.SquashCycles                   524                       # Number of cycles rename is squashing
system.cpu0.rename.IdleCycles                   12967                       # Number of cycles rename is idle
system.cpu0.rename.BlockCycles                    598                       # Number of cycles rename is blocking
system.cpu0.rename.serializeStallCycles          2076                       # count of cycles rename stalled for serializing inst
system.cpu0.rename.RunCycles                 52008235                       # Number of cycles rename is running
system.cpu0.rename.UnblockCycles                 2837                       # Number of cycles rename is unblocking
system.cpu0.rename.RenamedInsts             130023319                       # Number of instructions processed by rename
system.cpu0.rename.IQFullEvents                    14                       # Number of times rename has blocked due to IQ full
system.cpu0.rename.LQFullEvents                     9                       # Number of times rename has blocked due to LQ full
system.cpu0.rename.SQFullEvents                  2672                       # Number of times rename has blocked due to SQ full
system.cpu0.rename.RenamedOperands          130024939                       # Number of destination operands rename has renamed
system.cpu0.rename.RenameLookups            598093414                       # Number of register rename lookups that rename has made
system.cpu0.rename.int_rename_lookups       130024496                       # Number of integer rename lookups
system.cpu0.rename.fp_rename_lookups               16                       # Number of floating rename lookups
system.cpu0.rename.CommittedMaps            130017876                       # Number of HB maps that are committed
system.cpu0.rename.UndoneMaps                    7063                       # Number of HB maps that are undone due to squashing
system.cpu0.rename.serializingInsts                55                       # count of serializing insts renamed
system.cpu0.rename.tempSerializingInsts            55                       # count of temporary serializing insts renamed
system.cpu0.rename.skidInsts                     1195                       # count of insts added to the skid buffer
system.cpu0.memDep0.insertedLoads            51994254                       # Number of loads inserted to the mem dependence unit.
system.cpu0.memDep0.insertedStores           26000703                       # Number of stores inserted to the mem dependence unit.
system.cpu0.memDep0.conflictingLoads         25994556                       # Number of conflicting loads.
system.cpu0.memDep0.conflictingStores        25994522                       # Number of conflicting stores.
system.cpu0.iq.iqInstsAdded                 130021684                       # Number of instructions added to the IQ (excludes non-spec)
system.cpu0.iq.iqNonSpecInstsAdded                 80                       # Number of non-speculative instructions added to the IQ
system.cpu0.iq.iqInstsIssued                130019611                       # Number of instructions issued
system.cpu0.iq.iqSquashedInstsIssued              386                       # Number of squashed instructions issued
system.cpu0.iq.iqSquashedInstsExamined           4945                       # Number of squashed instructions iterated over during squash; mainly for profiling
system.cpu0.iq.iqSquashedOperandsExamined        12461                       # Number of squashed operands that are examined and possibly removed from graph
system.cpu0.iq.iqSquashedNonSpecRemoved             7                       # Number of squashed non-spec instructions that were removed
system.cpu0.iq.issued_per_cycle::samples     52027237                       # Number of insts issued each cycle
system.cpu0.iq.issued_per_cycle::mean        2.499068                       # Number of insts issued each cycle
system.cpu0.iq.issued_per_cycle::stdev       0.706802                       # Number of insts issued each cycle
system.cpu0.iq.issued_per_cycle::underflows            0      0.00%      0.00% # Number of insts issued each cycle
system.cpu0.iq.issued_per_cycle::0              15856      0.03%      0.03% # Number of insts issued each cycle
system.cpu0.iq.issued_per_cycle::1            6444662     12.39%     12.42% # Number of insts issued each cycle
system.cpu0.iq.issued_per_cycle::2           13125208     25.23%     37.65% # Number of insts issued each cycle
system.cpu0.iq.issued_per_cycle::3           32441511     62.35%    100.00% # Number of insts issued each cycle
system.cpu0.iq.issued_per_cycle::overflows            0      0.00%    100.00% # Number of insts issued each cycle
system.cpu0.iq.issued_per_cycle::min_value            0                       # Number of insts issued each cycle
system.cpu0.iq.issued_per_cycle::max_value            3                       # Number of insts issued each cycle
system.cpu0.iq.issued_per_cycle::total       52027237                       # Number of insts issued each cycle
system.cpu0.iq.fu_full::No_OpClass                  0                       # attempts to use FU when none available
system.cpu0.iq.fu_full::IntAlu                      0                       # attempts to use FU when none available
system.cpu0.iq.fu_full::IntMult                     0                       # attempts to use FU when none available
system.cpu0.iq.fu_full::IntDiv                      0                       # attempts to use FU when none available
system.cpu0.iq.fu_full::FloatAdd                    0                       # attempts to use FU when none available
system.cpu0.iq.fu_full::FloatCmp                    0                       # attempts to use FU when none available
system.cpu0.iq.fu_full::FloatCvt                    0                       # attempts to use FU when none available
system.cpu0.iq.fu_full::FloatMult                   0                       # attempts to use FU when none available
system.cpu0.iq.fu_full::FloatDiv                    0                       # attempts to use FU when none available
system.cpu0.iq.fu_full::FloatSqrt                   0                       # attempts to use FU when none available
system.cpu0.iq.fu_full::SimdAdd                     0                       # attempts to use FU when none available
system.cpu0.iq.fu_full::SimdAddAcc                  0                       # attempts to use FU when none available
system.cpu0.iq.fu_full::SimdAlu                     0                       # attempts to use FU when none available
system.cpu0.iq.fu_full::SimdCmp                     0                       # attempts to use FU when none available
system.cpu0.iq.fu_full::SimdCvt                     0                       # attempts to use FU when none available
system.cpu0.iq.fu_full::SimdMisc                    0                       # attempts to use FU when none available
system.cpu0.iq.fu_full::SimdMult                    0                       # attempts to use FU when none available
system.cpu0.iq.fu_full::SimdMultAcc                 0                       # attempts to use FU when none available
system.cpu0.iq.fu_full::SimdShift                   0                       # attempts to use FU when none available
system.cpu0.iq.fu_full::SimdShiftAcc                0                       # attempts to use FU when none available
system.cpu0.iq.fu_full::SimdSqrt                    0                       # attempts to use FU when none available
system.cpu0.iq.fu_full::SimdFloatAdd                0                       # attempts to use FU when none available
system.cpu0.iq.fu_full::SimdFloatAlu                0                       # attempts to use FU when none available
system.cpu0.iq.fu_full::SimdFloatCmp                0                       # attempts to use FU when none available
system.cpu0.iq.fu_full::SimdFloatCvt                0                       # attempts to use FU when none available
system.cpu0.iq.fu_full::SimdFloatDiv                0                       # attempts to use FU when none available
system.cpu0.iq.fu_full::SimdFloatMisc               0                       # attempts to use FU when none available
system.cpu0.iq.fu_full::SimdFloatMult               0                       # attempts to use FU when none available
system.cpu0.iq.fu_full::SimdFloatMultAcc            0                       # attempts to use FU when none available
system.cpu0.iq.fu_full::SimdFloatSqrt               0                       # attempts to use FU when none available
system.cpu0.iq.fu_full::MemRead                     0                       # attempts to use FU when none available
system.cpu0.iq.fu_full::MemWrite                    0                       # attempts to use FU when none available
system.cpu0.iq.fu_full::IprAccess                   0                       # attempts to use FU when none available
system.cpu0.iq.fu_full::InstPrefetch                0                       # attempts to use FU when none available
system.cpu0.iq.FU_type_0::No_OpClass                0      0.00%      0.00% # Type of FU issued
system.cpu0.iq.FU_type_0::IntAlu             52025290     40.01%     40.01% # Type of FU issued
system.cpu0.iq.FU_type_0::IntMult                   6      0.00%     40.01% # Type of FU issued
system.cpu0.iq.FU_type_0::IntDiv                    0      0.00%     40.01% # Type of FU issued
system.cpu0.iq.FU_type_0::FloatAdd                  0      0.00%     40.01% # Type of FU issued
system.cpu0.iq.FU_type_0::FloatCmp                  0      0.00%     40.01% # Type of FU issued
system.cpu0.iq.FU_type_0::FloatCvt                  0      0.00%     40.01% # Type of FU issued
system.cpu0.iq.FU_type_0::FloatMult                 0      0.00%     40.01% # Type of FU issued
system.cpu0.iq.FU_type_0::FloatDiv                  0      0.00%     40.01% # Type of FU issued
system.cpu0.iq.FU_type_0::FloatSqrt                 0      0.00%     40.01% # Type of FU issued
system.cpu0.iq.FU_type_0::SimdAdd                   0      0.00%     40.01% # Type of FU issued
system.cpu0.iq.FU_type_0::SimdAddAcc                0      0.00%     40.01% # Type of FU issued
system.cpu0.iq.FU_type_0::SimdAlu                   0      0.00%     40.01% # Type of FU issued
system.cpu0.iq.FU_type_0::SimdCmp                   0      0.00%     40.01% # Type of FU issued
system.cpu0.iq.FU_type_0::SimdCvt                   0      0.00%     40.01% # Type of FU issued
system.cpu0.iq.FU_type_0::SimdMisc                  0      0.00%     40.01% # Type of FU issued
system.cpu0.iq.FU_type_0::SimdMult                  0      0.00%     40.01% # Type of FU issued
system.cpu0.iq.FU_type_0::SimdMultAcc               0      0.00%     40.01% # Type of FU issued
system.cpu0.iq.FU_type_0::SimdShift                 0      0.00%     40.01% # Type of FU issued
system.cpu0.iq.FU_type_0::SimdShiftAcc              0      0.00%     40.01% # Type of FU issued
system.cpu0.iq.FU_type_0::SimdSqrt                  0      0.00%     40.01% # Type of FU issued
system.cpu0.iq.FU_type_0::SimdFloatAdd              0      0.00%     40.01% # Type of FU issued
system.cpu0.iq.FU_type_0::SimdFloatAlu              0      0.00%     40.01% # Type of FU issued
system.cpu0.iq.FU_type_0::SimdFloatCmp              0      0.00%     40.01% # Type of FU issued
system.cpu0.iq.FU_type_0::SimdFloatCvt              0      0.00%     40.01% # Type of FU issued
system.cpu0.iq.FU_type_0::SimdFloatDiv              0      0.00%     40.01% # Type of FU issued
system.cpu0.iq.FU_type_0::SimdFloatMisc             3      0.00%     40.01% # Type of FU issued
system.cpu0.iq.FU_type_0::SimdFloatMult             0      0.00%     40.01% # Type of FU issued
system.cpu0.iq.FU_type_0::SimdFloatMultAcc            0      0.00%     40.01% # Type of FU issued
system.cpu0.iq.FU_type_0::SimdFloatSqrt             0      0.00%     40.01% # Type of FU issued
system.cpu0.iq.FU_type_0::MemRead            51993831     39.99%     80.00% # Type of FU issued
system.cpu0.iq.FU_type_0::MemWrite           26000481     20.00%    100.00% # Type of FU issued
system.cpu0.iq.FU_type_0::IprAccess                 0      0.00%    100.00% # Type of FU issued
system.cpu0.iq.FU_type_0::InstPrefetch              0      0.00%    100.00% # Type of FU issued
system.cpu0.iq.FU_type_0::total             130019611                       # Type of FU issued
system.cpu0.iq.rate                          2.498687                       # Inst issue rate
system.cpu0.iq.fu_busy_cnt                          0                       # FU busy when requested
system.cpu0.iq.fu_busy_rate                         0                       # FU busy rate (busy events/executed inst)
system.cpu0.iq.int_inst_queue_reads         312066813                       # Number of integer instruction queue reads
system.cpu0.iq.int_inst_queue_writes        130026810                       # Number of integer instruction queue writes
system.cpu0.iq.int_inst_queue_wakeup_accesses    130018804                       # Number of integer instruction queue wakeup accesses
system.cpu0.iq.fp_inst_queue_reads                 32                       # Number of floating instruction queue reads
system.cpu0.iq.fp_inst_queue_writes                16                       # Number of floating instruction queue writes
system.cpu0.iq.fp_inst_queue_wakeup_accesses           16                       # Number of floating instruction queue wakeup accesses
system.cpu0.iq.int_alu_accesses             130019595                       # Number of integer alu accesses
system.cpu0.iq.fp_alu_accesses                     16                       # Number of floating point alu accesses
system.cpu0.iew.lsq.thread0.forwLoads        25994747                       # Number of loads that had data forwarded from stores
system.cpu0.iew.lsq.thread0.invAddrLoads            0                       # Number of loads ignored due to an invalid address
system.cpu0.iew.lsq.thread0.squashedLoads         1382                       # Number of loads squashed
system.cpu0.iew.lsq.thread0.ignoredResponses            3                       # Number of memory responses ignored because the instruction is squashed
system.cpu0.iew.lsq.thread0.memOrderViolation          117                       # Number of memory ordering violations
system.cpu0.iew.lsq.thread0.squashedStores          515                       # Number of stores squashed
system.cpu0.iew.lsq.thread0.invAddrSwpfs            0                       # Number of software prefetches ignored due to an invalid address
system.cpu0.iew.lsq.thread0.blockedLoads            0                       # Number of blocked loads due to partial load-store forwarding
system.cpu0.iew.lsq.thread0.rescheduledLoads            3                       # Number of loads that were rescheduled
system.cpu0.iew.lsq.thread0.cacheBlocked            9                       # Number of times an access to memory failed due to the cache being blocked
system.cpu0.iew.iewIdleCycles                       0                       # Number of cycles IEW is idle
system.cpu0.iew.iewSquashCycles                   524                       # Number of cycles IEW is squashing
system.cpu0.iew.iewBlockCycles                    464                       # Number of cycles IEW is blocking
system.cpu0.iew.iewUnblockCycles                  132                       # Number of cycles IEW is unblocking
system.cpu0.iew.iewDispatchedInsts          130021782                       # Number of instructions dispatched to IQ
system.cpu0.iew.iewDispSquashedInsts              228                       # Number of squashed instructions skipped by dispatch
system.cpu0.iew.iewDispLoadInsts             51994254                       # Number of dispatched load instructions
system.cpu0.iew.iewDispStoreInsts            26000703                       # Number of dispatched store instructions
system.cpu0.iew.iewDispNonSpecInsts                50                       # Number of dispatched non-speculative instructions
system.cpu0.iew.iewIQFullEvents                    11                       # Number of times the IQ has become full, causing a stall
system.cpu0.iew.iewLSQFullEvents                    0                       # Number of times the LSQ has become full, causing a stall
system.cpu0.iew.memOrderViolationEvents           117                       # Number of memory order violations
system.cpu0.iew.predictedTakenIncorrect           113                       # Number of branches that were predicted taken incorrectly
system.cpu0.iew.predictedNotTakenIncorrect          309                       # Number of branches that were predicted not taken incorrectly
system.cpu0.iew.branchMispredicts                 422                       # Number of branch mispredicts detected at execute
system.cpu0.iew.iewExecutedInsts            130019112                       # Number of executed instructions
system.cpu0.iew.iewExecLoadInsts             51993721                       # Number of load instructions executed
system.cpu0.iew.iewExecSquashedInsts              499                       # Number of squashed instructions skipped in execute
system.cpu0.iew.exec_swp                            0                       # number of swp insts executed
system.cpu0.iew.exec_nop                           18                       # number of nop insts executed
system.cpu0.iew.exec_refs                    77994046                       # number of memory reference insts executed
system.cpu0.iew.exec_branches                26004920                       # Number of branches executed
system.cpu0.iew.exec_forward_branches            4969                       # Number of forward branches executed
system.cpu0.iew.exec_backward_branches       25997590                       # Number of backward branches executed
system.cpu0.iew.exec_taken_forward_branches         2372                       # Number of forward branches executed that is taken
system.cpu0.iew.exec_nottaken_forward_branches         2597                       # Number of forward branches executed that is not taken
system.cpu0.iew.exec_taken_backward_branches     25997347                       # Number of backward branches executed that is taken
system.cpu0.iew.exec_nottaken_backward_branches          243                       # Number of backward branches executed that is not taken
system.cpu0.iew.exec_stores                  26000325                       # Number of stores executed
system.cpu0.iew.exec_rate                    2.498677                       # Inst execution rate
system.cpu0.iew.wb_sent                     130018889                       # cumulative count of insts sent to commit
system.cpu0.iew.wb_count                    130018820                       # cumulative count of insts written-back
system.cpu0.iew.wb_producers                 78007062                       # num instructions producing a value
system.cpu0.iew.wb_consumers                 78017884                       # num instructions consuming a value
system.cpu0.iew.wb_penalized                        0                       # number of instrctions required to write to 'other' IQ
system.cpu0.iew.wb_rate                      2.498672                       # insts written-back per cycle
system.cpu0.iew.wb_fanout                    0.999861                       # average fanout of values written-back
system.cpu0.iew.wb_penalized_rate                   0                       # fraction of instructions written-back that wrote to 'other' IQ
system.cpu0.commit.commitSquashedInsts           4962                       # The number of squashed insts skipped by commit
system.cpu0.commit.commitNonSpecStalls             73                       # The number of times commit has been forced to stall to communicate backwards
system.cpu0.commit.branchMispredicts              397                       # The number of times a branch was mispredicted
system.cpu0.commit.committed_per_cycle::samples     52026346                       # Number of insts commited each cycle
system.cpu0.commit.committed_per_cycle::mean     2.499057                       # Number of insts commited each cycle
system.cpu0.commit.committed_per_cycle::stdev     1.580671                       # Number of insts commited each cycle
system.cpu0.commit.committed_per_cycle::underflows            0      0.00%      0.00% # Number of insts commited each cycle
system.cpu0.commit.committed_per_cycle::0        16819      0.03%      0.03% # Number of insts commited each cycle
system.cpu0.commit.committed_per_cycle::1     26003172     49.98%     50.01% # Number of insts commited each cycle
system.cpu0.commit.committed_per_cycle::2         3388      0.01%     50.02% # Number of insts commited each cycle
system.cpu0.commit.committed_per_cycle::3      6443559     12.39%     62.40% # Number of insts commited each cycle
system.cpu0.commit.committed_per_cycle::4     13121475     25.22%     87.63% # Number of insts commited each cycle
system.cpu0.commit.committed_per_cycle::5      6437623     12.37%    100.00% # Number of insts commited each cycle
system.cpu0.commit.committed_per_cycle::6           81      0.00%    100.00% # Number of insts commited each cycle
system.cpu0.commit.committed_per_cycle::7          139      0.00%    100.00% # Number of insts commited each cycle
system.cpu0.commit.committed_per_cycle::8           90      0.00%    100.00% # Number of insts commited each cycle
system.cpu0.commit.committed_per_cycle::overflows            0      0.00%    100.00% # Number of insts commited each cycle
system.cpu0.commit.committed_per_cycle::min_value            0                       # Number of insts commited each cycle
system.cpu0.commit.committed_per_cycle::max_value            8                       # Number of insts commited each cycle
system.cpu0.commit.committed_per_cycle::total     52026346                       # Number of insts commited each cycle
system.cpu0.commit.committedInsts           130013427                       # Number of instructions committed
system.cpu0.commit.committedOps             130016819                       # Number of ops (including micro ops) committed
system.cpu0.commit.swp_count                        0                       # Number of s/w prefetches committed
system.cpu0.commit.refs                      77993060                       # Number of memory references committed
system.cpu0.commit.loads                     51992872                       # Number of loads committed
system.cpu0.commit.membars                         30                       # Number of memory barriers committed
system.cpu0.commit.branches                  26004556                       # Number of branches committed
system.cpu0.commit.fp_insts                        16                       # Number of committed floating point instructions.
system.cpu0.commit.int_insts                104016751                       # Number of committed integer instructions.
system.cpu0.commit.function_calls                2200                       # Number of function calls committed.
system.cpu0.commit.op_class_0::No_OpClass            0      0.00%      0.00% # Class of committed instruction
system.cpu0.commit.op_class_0::IntAlu        52023750     40.01%     40.01% # Class of committed instruction
system.cpu0.commit.op_class_0::IntMult              6      0.00%     40.01% # Class of committed instruction
system.cpu0.commit.op_class_0::IntDiv               0      0.00%     40.01% # Class of committed instruction
system.cpu0.commit.op_class_0::FloatAdd             0      0.00%     40.01% # Class of committed instruction
system.cpu0.commit.op_class_0::FloatCmp             0      0.00%     40.01% # Class of committed instruction
system.cpu0.commit.op_class_0::FloatCvt             0      0.00%     40.01% # Class of committed instruction
system.cpu0.commit.op_class_0::FloatMult            0      0.00%     40.01% # Class of committed instruction
system.cpu0.commit.op_class_0::FloatDiv             0      0.00%     40.01% # Class of committed instruction
system.cpu0.commit.op_class_0::FloatSqrt            0      0.00%     40.01% # Class of committed instruction
system.cpu0.commit.op_class_0::SimdAdd              0      0.00%     40.01% # Class of committed instruction
system.cpu0.commit.op_class_0::SimdAddAcc            0      0.00%     40.01% # Class of committed instruction
system.cpu0.commit.op_class_0::SimdAlu              0      0.00%     40.01% # Class of committed instruction
system.cpu0.commit.op_class_0::SimdCmp              0      0.00%     40.01% # Class of committed instruction
system.cpu0.commit.op_class_0::SimdCvt              0      0.00%     40.01% # Class of committed instruction
system.cpu0.commit.op_class_0::SimdMisc             0      0.00%     40.01% # Class of committed instruction
system.cpu0.commit.op_class_0::SimdMult             0      0.00%     40.01% # Class of committed instruction
system.cpu0.commit.op_class_0::SimdMultAcc            0      0.00%     40.01% # Class of committed instruction
system.cpu0.commit.op_class_0::SimdShift            0      0.00%     40.01% # Class of committed instruction
system.cpu0.commit.op_class_0::SimdShiftAcc            0      0.00%     40.01% # Class of committed instruction
system.cpu0.commit.op_class_0::SimdSqrt             0      0.00%     40.01% # Class of committed instruction
system.cpu0.commit.op_class_0::SimdFloatAdd            0      0.00%     40.01% # Class of committed instruction
system.cpu0.commit.op_class_0::SimdFloatAlu            0      0.00%     40.01% # Class of committed instruction
system.cpu0.commit.op_class_0::SimdFloatCmp            0      0.00%     40.01% # Class of committed instruction
system.cpu0.commit.op_class_0::SimdFloatCvt            0      0.00%     40.01% # Class of committed instruction
system.cpu0.commit.op_class_0::SimdFloatDiv            0      0.00%     40.01% # Class of committed instruction
system.cpu0.commit.op_class_0::SimdFloatMisc            3      0.00%     40.01% # Class of committed instruction
system.cpu0.commit.op_class_0::SimdFloatMult            0      0.00%     40.01% # Class of committed instruction
system.cpu0.commit.op_class_0::SimdFloatMultAcc            0      0.00%     40.01% # Class of committed instruction
system.cpu0.commit.op_class_0::SimdFloatSqrt            0      0.00%     40.01% # Class of committed instruction
system.cpu0.commit.op_class_0::MemRead       51992872     39.99%     80.00% # Class of committed instruction
system.cpu0.commit.op_class_0::MemWrite      26000188     20.00%    100.00% # Class of committed instruction
system.cpu0.commit.op_class_0::IprAccess            0      0.00%    100.00% # Class of committed instruction
system.cpu0.commit.op_class_0::InstPrefetch            0      0.00%    100.00% # Class of committed instruction
system.cpu0.commit.op_class_0::total        130016819                       # Class of committed instruction
system.cpu0.commit.bw_lim_events                   90                       # number cycles where commit BW limit reached
system.cpu0.rob.rob_reads                   182047880                       # The number of ROB reads
system.cpu0.rob.rob_writes                  260044460                       # The number of ROB writes
system.cpu0.timesIdled                            258                       # Number of times that the entire CPU went into an idle state and unscheduled itself
system.cpu0.idleCycles                           7937                       # Total number of cycles that the CPU has spent unscheduled due to idling
system.cpu0.committedInsts                  130013427                       # Number of Instructions Simulated
system.cpu0.committedOps                    130016819                       # Number of Ops (including micro ops) Simulated
system.cpu0.cpi                              0.400229                       # CPI: Cycles Per Instruction
system.cpu0.cpi_total                        0.400229                       # CPI: Total CPI of All Threads
system.cpu0.ipc                              2.498568                       # IPC: Instructions Per Cycle
system.cpu0.ipc_total                        2.498568                       # IPC: Total IPC of All Threads
system.cpu0.int_regfile_reads               130017512                       # number of integer regfile reads
system.cpu0.int_regfile_writes               52016102                       # number of integer regfile writes
system.cpu0.fp_regfile_reads                      336                       # number of floating regfile reads
system.cpu0.cc_regfile_reads                546037554                       # number of cc regfile reads
system.cpu0.cc_regfile_writes                78003876                       # number of cc regfile writes
system.cpu0.misc_regfile_reads               79300918                       # number of misc regfile reads
system.cpu0.misc_regfile_writes                    60                       # number of misc regfile writes
system.cpu0.dcache.tags.replacements              591                       # number of replacements
system.cpu0.dcache.tags.tagsinuse           74.062173                       # Cycle average of tags in use
system.cpu0.dcache.tags.total_refs           51993171                       # Total number of references to valid blocks.
system.cpu0.dcache.tags.sampled_refs              672                       # Sample count of references to valid blocks.
system.cpu0.dcache.tags.avg_refs         77370.790179                       # Average number of references to valid blocks.
system.cpu0.dcache.tags.warmup_cycle         25970000                       # Cycle when the warmup percentage was hit.
system.cpu0.dcache.tags.occ_blocks::cpu0.data    74.062173                       # Average occupied blocks per requestor
system.cpu0.dcache.tags.occ_percent::cpu0.data     0.144653                       # Average percentage of cache occupancy
system.cpu0.dcache.tags.occ_percent::total     0.144653                       # Average percentage of cache occupancy
system.cpu0.dcache.tags.occ_task_id_blocks::1024           81                       # Occupied blocks per task id
system.cpu0.dcache.tags.age_task_id_blocks_1024::0           26                       # Occupied blocks per task id
system.cpu0.dcache.tags.age_task_id_blocks_1024::4           55                       # Occupied blocks per task id
system.cpu0.dcache.tags.occ_task_id_percent::1024     0.158203                       # Percentage of cache occupancy per task id
system.cpu0.dcache.tags.tag_accesses        103999070                       # Number of tag accesses
system.cpu0.dcache.tags.data_accesses       103999070                       # Number of data accesses
system.cpu0.dcache.ReadReq_hits::cpu0.data     25998544                       # number of ReadReq hits
system.cpu0.dcache.ReadReq_hits::total       25998544                       # number of ReadReq hits
system.cpu0.dcache.WriteReq_hits::cpu0.data     25995675                       # number of WriteReq hits
system.cpu0.dcache.WriteReq_hits::total      25995675                       # number of WriteReq hits
system.cpu0.dcache.LoadLockedReq_hits::cpu0.data           25                       # number of LoadLockedReq hits
system.cpu0.dcache.LoadLockedReq_hits::total           25                       # number of LoadLockedReq hits
system.cpu0.dcache.StoreCondReq_hits::cpu0.data           28                       # number of StoreCondReq hits
system.cpu0.dcache.StoreCondReq_hits::total           28                       # number of StoreCondReq hits
system.cpu0.dcache.demand_hits::cpu0.data     51994219                       # number of demand (read+write) hits
system.cpu0.dcache.demand_hits::total        51994219                       # number of demand (read+write) hits
system.cpu0.dcache.overall_hits::cpu0.data     51994219                       # number of overall hits
system.cpu0.dcache.overall_hits::total       51994219                       # number of overall hits
system.cpu0.dcache.ReadReq_misses::cpu0.data          253                       # number of ReadReq misses
system.cpu0.dcache.ReadReq_misses::total          253                       # number of ReadReq misses
system.cpu0.dcache.WriteReq_misses::cpu0.data         4439                       # number of WriteReq misses
system.cpu0.dcache.WriteReq_misses::total         4439                       # number of WriteReq misses
system.cpu0.dcache.LoadLockedReq_misses::cpu0.data            5                       # number of LoadLockedReq misses
system.cpu0.dcache.LoadLockedReq_misses::total            5                       # number of LoadLockedReq misses
system.cpu0.dcache.StoreCondReq_misses::cpu0.data            1                       # number of StoreCondReq misses
system.cpu0.dcache.StoreCondReq_misses::total            1                       # number of StoreCondReq misses
system.cpu0.dcache.demand_misses::cpu0.data         4692                       # number of demand (read+write) misses
system.cpu0.dcache.demand_misses::total          4692                       # number of demand (read+write) misses
system.cpu0.dcache.overall_misses::cpu0.data         4692                       # number of overall misses
system.cpu0.dcache.overall_misses::total         4692                       # number of overall misses
system.cpu0.dcache.ReadReq_miss_latency::cpu0.data      9775991                       # number of ReadReq miss cycles
system.cpu0.dcache.ReadReq_miss_latency::total      9775991                       # number of ReadReq miss cycles
system.cpu0.dcache.WriteReq_miss_latency::cpu0.data    224601499                       # number of WriteReq miss cycles
system.cpu0.dcache.WriteReq_miss_latency::total    224601499                       # number of WriteReq miss cycles
system.cpu0.dcache.LoadLockedReq_miss_latency::cpu0.data       171500                       # number of LoadLockedReq miss cycles
system.cpu0.dcache.LoadLockedReq_miss_latency::total       171500                       # number of LoadLockedReq miss cycles
system.cpu0.dcache.StoreCondReq_miss_latency::cpu0.data         7500                       # number of StoreCondReq miss cycles
system.cpu0.dcache.StoreCondReq_miss_latency::total         7500                       # number of StoreCondReq miss cycles
system.cpu0.dcache.demand_miss_latency::cpu0.data    234377490                       # number of demand (read+write) miss cycles
system.cpu0.dcache.demand_miss_latency::total    234377490                       # number of demand (read+write) miss cycles
system.cpu0.dcache.overall_miss_latency::cpu0.data    234377490                       # number of overall miss cycles
system.cpu0.dcache.overall_miss_latency::total    234377490                       # number of overall miss cycles
system.cpu0.dcache.ReadReq_accesses::cpu0.data     25998797                       # number of ReadReq accesses(hits+misses)
system.cpu0.dcache.ReadReq_accesses::total     25998797                       # number of ReadReq accesses(hits+misses)
system.cpu0.dcache.WriteReq_accesses::cpu0.data     26000114                       # number of WriteReq accesses(hits+misses)
system.cpu0.dcache.WriteReq_accesses::total     26000114                       # number of WriteReq accesses(hits+misses)
system.cpu0.dcache.LoadLockedReq_accesses::cpu0.data           30                       # number of LoadLockedReq accesses(hits+misses)
system.cpu0.dcache.LoadLockedReq_accesses::total           30                       # number of LoadLockedReq accesses(hits+misses)
system.cpu0.dcache.StoreCondReq_accesses::cpu0.data           29                       # number of StoreCondReq accesses(hits+misses)
system.cpu0.dcache.StoreCondReq_accesses::total           29                       # number of StoreCondReq accesses(hits+misses)
system.cpu0.dcache.demand_accesses::cpu0.data     51998911                       # number of demand (read+write) accesses
system.cpu0.dcache.demand_accesses::total     51998911                       # number of demand (read+write) accesses
system.cpu0.dcache.overall_accesses::cpu0.data     51998911                       # number of overall (read+write) accesses
system.cpu0.dcache.overall_accesses::total     51998911                       # number of overall (read+write) accesses
system.cpu0.dcache.ReadReq_miss_rate::cpu0.data     0.000010                       # miss rate for ReadReq accesses
system.cpu0.dcache.ReadReq_miss_rate::total     0.000010                       # miss rate for ReadReq accesses
system.cpu0.dcache.WriteReq_miss_rate::cpu0.data     0.000171                       # miss rate for WriteReq accesses
system.cpu0.dcache.WriteReq_miss_rate::total     0.000171                       # miss rate for WriteReq accesses
system.cpu0.dcache.LoadLockedReq_miss_rate::cpu0.data     0.166667                       # miss rate for LoadLockedReq accesses
system.cpu0.dcache.LoadLockedReq_miss_rate::total     0.166667                       # miss rate for LoadLockedReq accesses
system.cpu0.dcache.StoreCondReq_miss_rate::cpu0.data     0.034483                       # miss rate for StoreCondReq accesses
system.cpu0.dcache.StoreCondReq_miss_rate::total     0.034483                       # miss rate for StoreCondReq accesses
system.cpu0.dcache.demand_miss_rate::cpu0.data     0.000090                       # miss rate for demand accesses
system.cpu0.dcache.demand_miss_rate::total     0.000090                       # miss rate for demand accesses
system.cpu0.dcache.overall_miss_rate::cpu0.data     0.000090                       # miss rate for overall accesses
system.cpu0.dcache.overall_miss_rate::total     0.000090                       # miss rate for overall accesses
system.cpu0.dcache.ReadReq_avg_miss_latency::cpu0.data 38640.280632                       # average ReadReq miss latency
system.cpu0.dcache.ReadReq_avg_miss_latency::total 38640.280632                       # average ReadReq miss latency
system.cpu0.dcache.WriteReq_avg_miss_latency::cpu0.data 50597.318991                       # average WriteReq miss latency
system.cpu0.dcache.WriteReq_avg_miss_latency::total 50597.318991                       # average WriteReq miss latency
system.cpu0.dcache.LoadLockedReq_avg_miss_latency::cpu0.data        34300                       # average LoadLockedReq miss latency
system.cpu0.dcache.LoadLockedReq_avg_miss_latency::total        34300                       # average LoadLockedReq miss latency
system.cpu0.dcache.StoreCondReq_avg_miss_latency::cpu0.data         7500                       # average StoreCondReq miss latency
system.cpu0.dcache.StoreCondReq_avg_miss_latency::total         7500                       # average StoreCondReq miss latency
system.cpu0.dcache.demand_avg_miss_latency::cpu0.data 49952.576726                       # average overall miss latency
system.cpu0.dcache.demand_avg_miss_latency::total 49952.576726                       # average overall miss latency
system.cpu0.dcache.overall_avg_miss_latency::cpu0.data 49952.576726                       # average overall miss latency
system.cpu0.dcache.overall_avg_miss_latency::total 49952.576726                       # average overall miss latency
system.cpu0.dcache.blocked_cycles::no_mshrs           72                       # number of cycles access was blocked
system.cpu0.dcache.blocked_cycles::no_targets            0                       # number of cycles access was blocked
system.cpu0.dcache.blocked::no_mshrs                7                       # number of cycles access was blocked
system.cpu0.dcache.blocked::no_targets              0                       # number of cycles access was blocked
system.cpu0.dcache.avg_blocked_cycles::no_mshrs    10.285714                       # average number of cycles each access was blocked
system.cpu0.dcache.avg_blocked_cycles::no_targets          nan                       # average number of cycles each access was blocked
system.cpu0.dcache.fast_writes                      0                       # number of fast writes performed
system.cpu0.dcache.cache_copies                     0                       # number of cache copies performed
system.cpu0.dcache.writebacks::writebacks          514                       # number of writebacks
system.cpu0.dcache.writebacks::total              514                       # number of writebacks
system.cpu0.dcache.ReadReq_mshr_hits::cpu0.data           80                       # number of ReadReq MSHR hits
system.cpu0.dcache.ReadReq_mshr_hits::total           80                       # number of ReadReq MSHR hits
system.cpu0.dcache.WriteReq_mshr_hits::cpu0.data         3478                       # number of WriteReq MSHR hits
system.cpu0.dcache.WriteReq_mshr_hits::total         3478                       # number of WriteReq MSHR hits
system.cpu0.dcache.LoadLockedReq_mshr_hits::cpu0.data            5                       # number of LoadLockedReq MSHR hits
system.cpu0.dcache.LoadLockedReq_mshr_hits::total            5                       # number of LoadLockedReq MSHR hits
system.cpu0.dcache.demand_mshr_hits::cpu0.data         3558                       # number of demand (read+write) MSHR hits
system.cpu0.dcache.demand_mshr_hits::total         3558                       # number of demand (read+write) MSHR hits
system.cpu0.dcache.overall_mshr_hits::cpu0.data         3558                       # number of overall MSHR hits
system.cpu0.dcache.overall_mshr_hits::total         3558                       # number of overall MSHR hits
system.cpu0.dcache.ReadReq_mshr_misses::cpu0.data          173                       # number of ReadReq MSHR misses
system.cpu0.dcache.ReadReq_mshr_misses::total          173                       # number of ReadReq MSHR misses
system.cpu0.dcache.WriteReq_mshr_misses::cpu0.data          961                       # number of WriteReq MSHR misses
system.cpu0.dcache.WriteReq_mshr_misses::total          961                       # number of WriteReq MSHR misses
system.cpu0.dcache.StoreCondReq_mshr_misses::cpu0.data            1                       # number of StoreCondReq MSHR misses
system.cpu0.dcache.StoreCondReq_mshr_misses::total            1                       # number of StoreCondReq MSHR misses
system.cpu0.dcache.demand_mshr_misses::cpu0.data         1134                       # number of demand (read+write) MSHR misses
system.cpu0.dcache.demand_mshr_misses::total         1134                       # number of demand (read+write) MSHR misses
system.cpu0.dcache.overall_mshr_misses::cpu0.data         1134                       # number of overall MSHR misses
system.cpu0.dcache.overall_mshr_misses::total         1134                       # number of overall MSHR misses
system.cpu0.dcache.ReadReq_mshr_miss_latency::cpu0.data      6576508                       # number of ReadReq MSHR miss cycles
system.cpu0.dcache.ReadReq_mshr_miss_latency::total      6576508                       # number of ReadReq MSHR miss cycles
system.cpu0.dcache.WriteReq_mshr_miss_latency::cpu0.data     52381000                       # number of WriteReq MSHR miss cycles
system.cpu0.dcache.WriteReq_mshr_miss_latency::total     52381000                       # number of WriteReq MSHR miss cycles
system.cpu0.dcache.StoreCondReq_mshr_miss_latency::cpu0.data         4500                       # number of StoreCondReq MSHR miss cycles
system.cpu0.dcache.StoreCondReq_mshr_miss_latency::total         4500                       # number of StoreCondReq MSHR miss cycles
system.cpu0.dcache.demand_mshr_miss_latency::cpu0.data     58957508                       # number of demand (read+write) MSHR miss cycles
system.cpu0.dcache.demand_mshr_miss_latency::total     58957508                       # number of demand (read+write) MSHR miss cycles
system.cpu0.dcache.overall_mshr_miss_latency::cpu0.data     58957508                       # number of overall MSHR miss cycles
system.cpu0.dcache.overall_mshr_miss_latency::total     58957508                       # number of overall MSHR miss cycles
system.cpu0.dcache.ReadReq_mshr_miss_rate::cpu0.data     0.000007                       # mshr miss rate for ReadReq accesses
system.cpu0.dcache.ReadReq_mshr_miss_rate::total     0.000007                       # mshr miss rate for ReadReq accesses
system.cpu0.dcache.WriteReq_mshr_miss_rate::cpu0.data     0.000037                       # mshr miss rate for WriteReq accesses
system.cpu0.dcache.WriteReq_mshr_miss_rate::total     0.000037                       # mshr miss rate for WriteReq accesses
system.cpu0.dcache.StoreCondReq_mshr_miss_rate::cpu0.data     0.034483                       # mshr miss rate for StoreCondReq accesses
system.cpu0.dcache.StoreCondReq_mshr_miss_rate::total     0.034483                       # mshr miss rate for StoreCondReq accesses
system.cpu0.dcache.demand_mshr_miss_rate::cpu0.data     0.000022                       # mshr miss rate for demand accesses
system.cpu0.dcache.demand_mshr_miss_rate::total     0.000022                       # mshr miss rate for demand accesses
system.cpu0.dcache.overall_mshr_miss_rate::cpu0.data     0.000022                       # mshr miss rate for overall accesses
system.cpu0.dcache.overall_mshr_miss_rate::total     0.000022                       # mshr miss rate for overall accesses
system.cpu0.dcache.ReadReq_avg_mshr_miss_latency::cpu0.data 38014.497110                       # average ReadReq mshr miss latency
system.cpu0.dcache.ReadReq_avg_mshr_miss_latency::total 38014.497110                       # average ReadReq mshr miss latency
system.cpu0.dcache.WriteReq_avg_mshr_miss_latency::cpu0.data 54506.763788                       # average WriteReq mshr miss latency
system.cpu0.dcache.WriteReq_avg_mshr_miss_latency::total 54506.763788                       # average WriteReq mshr miss latency
system.cpu0.dcache.StoreCondReq_avg_mshr_miss_latency::cpu0.data         4500                       # average StoreCondReq mshr miss latency
system.cpu0.dcache.StoreCondReq_avg_mshr_miss_latency::total         4500                       # average StoreCondReq mshr miss latency
system.cpu0.dcache.demand_avg_mshr_miss_latency::cpu0.data 51990.747795                       # average overall mshr miss latency
system.cpu0.dcache.demand_avg_mshr_miss_latency::total 51990.747795                       # average overall mshr miss latency
system.cpu0.dcache.overall_avg_mshr_miss_latency::cpu0.data 51990.747795                       # average overall mshr miss latency
system.cpu0.dcache.overall_avg_mshr_miss_latency::total 51990.747795                       # average overall mshr miss latency
system.cpu0.dcache.no_allocate_misses               0                       # Number of misses that were no-allocate
system.cpu0.icache.tags.replacements               77                       # number of replacements
system.cpu0.icache.tags.tagsinuse          292.905128                       # Cycle average of tags in use
system.cpu0.icache.tags.total_refs               6242                       # Total number of references to valid blocks.
system.cpu0.icache.tags.sampled_refs              397                       # Sample count of references to valid blocks.
system.cpu0.icache.tags.avg_refs            15.722922                       # Average number of references to valid blocks.
system.cpu0.icache.tags.warmup_cycle                0                       # Cycle when the warmup percentage was hit.
system.cpu0.icache.tags.occ_blocks::cpu0.inst   292.905128                       # Average occupied blocks per requestor
system.cpu0.icache.tags.occ_percent::cpu0.inst     0.572080                       # Average percentage of cache occupancy
system.cpu0.icache.tags.occ_percent::total     0.572080                       # Average percentage of cache occupancy
system.cpu0.icache.tags.occ_task_id_blocks::1024          320                       # Occupied blocks per task id
system.cpu0.icache.tags.age_task_id_blocks_1024::0           45                       # Occupied blocks per task id
system.cpu0.icache.tags.age_task_id_blocks_1024::4          275                       # Occupied blocks per task id
system.cpu0.icache.tags.occ_task_id_percent::1024     0.625000                       # Percentage of cache occupancy per task id
system.cpu0.icache.tags.tag_accesses            13815                       # Number of tag accesses
system.cpu0.icache.tags.data_accesses           13815                       # Number of data accesses
system.cpu0.icache.ReadReq_hits::cpu0.inst         6242                       # number of ReadReq hits
system.cpu0.icache.ReadReq_hits::total           6242                       # number of ReadReq hits
system.cpu0.icache.demand_hits::cpu0.inst         6242                       # number of demand (read+write) hits
system.cpu0.icache.demand_hits::total            6242                       # number of demand (read+write) hits
system.cpu0.icache.overall_hits::cpu0.inst         6242                       # number of overall hits
system.cpu0.icache.overall_hits::total           6242                       # number of overall hits
system.cpu0.icache.ReadReq_misses::cpu0.inst          467                       # number of ReadReq misses
system.cpu0.icache.ReadReq_misses::total          467                       # number of ReadReq misses
system.cpu0.icache.demand_misses::cpu0.inst          467                       # number of demand (read+write) misses
system.cpu0.icache.demand_misses::total           467                       # number of demand (read+write) misses
system.cpu0.icache.overall_misses::cpu0.inst          467                       # number of overall misses
system.cpu0.icache.overall_misses::total          467                       # number of overall misses
system.cpu0.icache.ReadReq_miss_latency::cpu0.inst     23744999                       # number of ReadReq miss cycles
system.cpu0.icache.ReadReq_miss_latency::total     23744999                       # number of ReadReq miss cycles
system.cpu0.icache.demand_miss_latency::cpu0.inst     23744999                       # number of demand (read+write) miss cycles
system.cpu0.icache.demand_miss_latency::total     23744999                       # number of demand (read+write) miss cycles
system.cpu0.icache.overall_miss_latency::cpu0.inst     23744999                       # number of overall miss cycles
system.cpu0.icache.overall_miss_latency::total     23744999                       # number of overall miss cycles
system.cpu0.icache.ReadReq_accesses::cpu0.inst         6709                       # number of ReadReq accesses(hits+misses)
system.cpu0.icache.ReadReq_accesses::total         6709                       # number of ReadReq accesses(hits+misses)
system.cpu0.icache.demand_accesses::cpu0.inst         6709                       # number of demand (read+write) accesses
system.cpu0.icache.demand_accesses::total         6709                       # number of demand (read+write) accesses
system.cpu0.icache.overall_accesses::cpu0.inst         6709                       # number of overall (read+write) accesses
system.cpu0.icache.overall_accesses::total         6709                       # number of overall (read+write) accesses
system.cpu0.icache.ReadReq_miss_rate::cpu0.inst     0.069608                       # miss rate for ReadReq accesses
system.cpu0.icache.ReadReq_miss_rate::total     0.069608                       # miss rate for ReadReq accesses
system.cpu0.icache.demand_miss_rate::cpu0.inst     0.069608                       # miss rate for demand accesses
system.cpu0.icache.demand_miss_rate::total     0.069608                       # miss rate for demand accesses
system.cpu0.icache.overall_miss_rate::cpu0.inst     0.069608                       # miss rate for overall accesses
system.cpu0.icache.overall_miss_rate::total     0.069608                       # miss rate for overall accesses
system.cpu0.icache.ReadReq_avg_miss_latency::cpu0.inst 50845.822270                       # average ReadReq miss latency
system.cpu0.icache.ReadReq_avg_miss_latency::total 50845.822270                       # average ReadReq miss latency
system.cpu0.icache.demand_avg_miss_latency::cpu0.inst 50845.822270                       # average overall miss latency
system.cpu0.icache.demand_avg_miss_latency::total 50845.822270                       # average overall miss latency
system.cpu0.icache.overall_avg_miss_latency::cpu0.inst 50845.822270                       # average overall miss latency
system.cpu0.icache.overall_avg_miss_latency::total 50845.822270                       # average overall miss latency
system.cpu0.icache.blocked_cycles::no_mshrs           18                       # number of cycles access was blocked
system.cpu0.icache.blocked_cycles::no_targets            0                       # number of cycles access was blocked
system.cpu0.icache.blocked::no_mshrs                2                       # number of cycles access was blocked
system.cpu0.icache.blocked::no_targets              0                       # number of cycles access was blocked
system.cpu0.icache.avg_blocked_cycles::no_mshrs            9                       # average number of cycles each access was blocked
system.cpu0.icache.avg_blocked_cycles::no_targets          nan                       # average number of cycles each access was blocked
system.cpu0.icache.fast_writes                      0                       # number of fast writes performed
system.cpu0.icache.cache_copies                     0                       # number of cache copies performed
system.cpu0.icache.ReadReq_mshr_hits::cpu0.inst           70                       # number of ReadReq MSHR hits
system.cpu0.icache.ReadReq_mshr_hits::total           70                       # number of ReadReq MSHR hits
system.cpu0.icache.demand_mshr_hits::cpu0.inst           70                       # number of demand (read+write) MSHR hits
system.cpu0.icache.demand_mshr_hits::total           70                       # number of demand (read+write) MSHR hits
system.cpu0.icache.overall_mshr_hits::cpu0.inst           70                       # number of overall MSHR hits
system.cpu0.icache.overall_mshr_hits::total           70                       # number of overall MSHR hits
system.cpu0.icache.ReadReq_mshr_misses::cpu0.inst          397                       # number of ReadReq MSHR misses
system.cpu0.icache.ReadReq_mshr_misses::total          397                       # number of ReadReq MSHR misses
system.cpu0.icache.demand_mshr_misses::cpu0.inst          397                       # number of demand (read+write) MSHR misses
[...]
system.l2.ReadReq_mshr_miss_latency::total     42622000                       # number of ReadReq MSHR miss cycles
system.l2.UpgradeReq_mshr_miss_latency::cpu1.data   1247275678                       # number of UpgradeReq MSHR miss cycles
system.l2.UpgradeReq_mshr_miss_latency::cpu2.data   1660623610                       # number of UpgradeReq MSHR miss cycles
system.l2.UpgradeReq_mshr_miss_latency::total   2907899288                       # number of UpgradeReq MSHR miss cycles
system.l2.SCUpgradeReq_mshr_miss_latency::cpu1.data    909173130                       # number of SCUpgradeReq MSHR miss cycles
system.l2.SCUpgradeReq_mshr_miss_latency::cpu2.data   1125285796                       # number of SCUpgradeReq MSHR miss cycles
system.l2.SCUpgradeReq_mshr_miss_latency::total   2034458926                       # number of SCUpgradeReq MSHR miss cycles
system.l2.ReadExReq_mshr_miss_latency::cpu0.data     38499000                       # number of ReadExReq MSHR miss cycles
system.l2.ReadExReq_mshr_miss_latency::cpu1.data     56872000                       # number of ReadExReq MSHR miss cycles
system.l2.ReadExReq_mshr_miss_latency::cpu2.data     57304500                       # number of ReadExReq MSHR miss cycles
system.l2.ReadExReq_mshr_miss_latency::total    152675500                       # number of ReadExReq MSHR miss cycles
system.l2.demand_mshr_miss_latency::cpu0.inst     14572000                       # number of demand (read+write) MSHR miss cycles
system.l2.demand_mshr_miss_latency::cpu0.data     42395500                       # number of demand (read+write) MSHR miss cycles
system.l2.demand_mshr_miss_latency::cpu1.inst      6099500                       # number of demand (read+write) MSHR miss cycles
system.l2.demand_mshr_miss_latency::cpu1.data     62427000                       # number of demand (read+write) MSHR miss cycles
system.l2.demand_mshr_miss_latency::cpu2.inst      6570500                       # number of demand (read+write) MSHR miss cycles
system.l2.demand_mshr_miss_latency::cpu2.data     63233000                       # number of demand (read+write) MSHR miss cycles
system.l2.demand_mshr_miss_latency::total    195297500                       # number of demand (read+write) MSHR miss cycles
system.l2.overall_mshr_miss_latency::cpu0.inst     14572000                       # number of overall MSHR miss cycles
system.l2.overall_mshr_miss_latency::cpu0.data     42395500                       # number of overall MSHR miss cycles
system.l2.overall_mshr_miss_latency::cpu1.inst      6099500                       # number of overall MSHR miss cycles
system.l2.overall_mshr_miss_latency::cpu1.data     62427000                       # number of overall MSHR miss cycles
system.l2.overall_mshr_miss_latency::cpu2.inst      6570500                       # number of overall MSHR miss cycles
system.l2.overall_mshr_miss_latency::cpu2.data     63233000                       # number of overall MSHR miss cycles
system.l2.overall_mshr_miss_latency::total    195297500                       # number of overall MSHR miss cycles
system.l2.ReadReq_mshr_miss_rate::cpu0.inst     0.894207                       # mshr miss rate for ReadReq accesses
system.l2.ReadReq_mshr_miss_rate::cpu0.data     0.554217                       # mshr miss rate for ReadReq accesses
system.l2.ReadReq_mshr_miss_rate::cpu1.inst     0.055617                       # mshr miss rate for ReadReq accesses
system.l2.ReadReq_mshr_miss_rate::cpu1.data     0.000606                       # mshr miss rate for ReadReq accesses
system.l2.ReadReq_mshr_miss_rate::cpu2.inst     0.088268                       # mshr miss rate for ReadReq accesses
system.l2.ReadReq_mshr_miss_rate::cpu2.data     0.000625                       # mshr miss rate for ReadReq accesses
system.l2.ReadReq_mshr_miss_rate::total      0.002240                       # mshr miss rate for ReadReq accesses
system.l2.UpgradeReq_mshr_miss_rate::cpu1.data     0.998831                       # mshr miss rate for UpgradeReq accesses
system.l2.UpgradeReq_mshr_miss_rate::cpu2.data     0.997683                       # mshr miss rate for UpgradeReq accesses
system.l2.UpgradeReq_mshr_miss_rate::total     0.998162                       # mshr miss rate for UpgradeReq accesses
system.l2.SCUpgradeReq_mshr_miss_rate::cpu1.data            1                       # mshr miss rate for SCUpgradeReq accesses
system.l2.SCUpgradeReq_mshr_miss_rate::cpu2.data     0.999928                       # mshr miss rate for SCUpgradeReq accesses
system.l2.SCUpgradeReq_mshr_miss_rate::total     0.999960                       # mshr miss rate for SCUpgradeReq accesses
system.l2.ReadExReq_mshr_miss_rate::cpu0.data     0.991641                       # mshr miss rate for ReadExReq accesses
system.l2.ReadExReq_mshr_miss_rate::cpu1.data     0.909799                       # mshr miss rate for ReadExReq accesses
system.l2.ReadExReq_mshr_miss_rate::cpu2.data     0.986741                       # mshr miss rate for ReadExReq accesses
system.l2.ReadExReq_mshr_miss_rate::total     0.957772                       # mshr miss rate for ReadExReq accesses
system.l2.demand_mshr_miss_rate::cpu0.inst     0.894207                       # mshr miss rate for demand accesses
system.l2.demand_mshr_miss_rate::cpu0.data     0.926981                       # mshr miss rate for demand accesses
system.l2.demand_mshr_miss_rate::cpu1.inst     0.055617                       # mshr miss rate for demand accesses
system.l2.demand_mshr_miss_rate::cpu1.data     0.006759                       # mshr miss rate for demand accesses
system.l2.demand_mshr_miss_rate::cpu2.inst     0.088268                       # mshr miss rate for demand accesses
system.l2.demand_mshr_miss_rate::cpu2.data     0.006638                       # mshr miss rate for demand accesses
system.l2.demand_mshr_miss_rate::total       0.010253                       # mshr miss rate for demand accesses
system.l2.overall_mshr_miss_rate::cpu0.inst     0.894207                       # mshr miss rate for overall accesses
system.l2.overall_mshr_miss_rate::cpu0.data     0.926981                       # mshr miss rate for overall accesses
system.l2.overall_mshr_miss_rate::cpu1.inst     0.055617                       # mshr miss rate for overall accesses
system.l2.overall_mshr_miss_rate::cpu1.data     0.006759                       # mshr miss rate for overall accesses
system.l2.overall_mshr_miss_rate::cpu2.inst     0.088268                       # mshr miss rate for overall accesses
system.l2.overall_mshr_miss_rate::cpu2.data     0.006638                       # mshr miss rate for overall accesses
system.l2.overall_mshr_miss_rate::total      0.010253                       # mshr miss rate for overall accesses
system.l2.ReadReq_avg_mshr_miss_latency::cpu0.inst 41047.887324                       # average ReadReq mshr miss latency
system.l2.ReadReq_avg_mshr_miss_latency::cpu0.data 42353.260870                       # average ReadReq mshr miss latency
system.l2.ReadReq_avg_mshr_miss_latency::cpu1.inst 40663.333333                       # average ReadReq mshr miss latency
system.l2.ReadReq_avg_mshr_miss_latency::cpu1.data 40547.445255                       # average ReadReq mshr miss latency
system.l2.ReadReq_avg_mshr_miss_latency::cpu2.inst 40810.559006                       # average ReadReq mshr miss latency
system.l2.ReadReq_avg_mshr_miss_latency::cpu2.data 40606.164384                       # average ReadReq mshr miss latency
system.l2.ReadReq_avg_mshr_miss_latency::total 40943.323727                       # average ReadReq mshr miss latency
system.l2.UpgradeReq_avg_mshr_miss_latency::cpu1.data 40553.897711                       # average UpgradeReq mshr miss latency
system.l2.UpgradeReq_avg_mshr_miss_latency::cpu2.data 40590.135168                       # average UpgradeReq mshr miss latency
system.l2.UpgradeReq_avg_mshr_miss_latency::total 40574.584026                       # average UpgradeReq mshr miss latency
system.l2.SCUpgradeReq_avg_mshr_miss_latency::cpu1.data 40519.347981                       # average SCUpgradeReq mshr miss latency
system.l2.SCUpgradeReq_avg_mshr_miss_latency::cpu2.data 40521.634714                       # average SCUpgradeReq mshr miss latency
system.l2.SCUpgradeReq_avg_mshr_miss_latency::total 40520.612771                       # average SCUpgradeReq mshr miss latency
system.l2.ReadExReq_avg_mshr_miss_latency::cpu0.data 40567.966280                       # average ReadExReq mshr miss latency
system.l2.ReadExReq_avg_mshr_miss_latency::cpu1.data 40564.907275                       # average ReadExReq mshr miss latency
system.l2.ReadExReq_avg_mshr_miss_latency::cpu2.data 40526.520509                       # average ReadExReq mshr miss latency
system.l2.ReadExReq_avg_mshr_miss_latency::total 40551.261620                       # average ReadExReq mshr miss latency
system.l2.demand_avg_mshr_miss_latency::cpu0.inst 41047.887324                       # average overall mshr miss latency
system.l2.demand_avg_mshr_miss_latency::cpu0.data 40725.744476                       # average overall mshr miss latency
system.l2.demand_avg_mshr_miss_latency::cpu1.inst 40663.333333                       # average overall mshr miss latency
system.l2.demand_avg_mshr_miss_latency::cpu1.data 40563.352827                       # average overall mshr miss latency
system.l2.demand_avg_mshr_miss_latency::cpu2.inst 40810.559006                       # average overall mshr miss latency
system.l2.demand_avg_mshr_miss_latency::cpu2.data 40533.974359                       # average overall mshr miss latency
system.l2.demand_avg_mshr_miss_latency::total 40636.183937                       # average overall mshr miss latency
system.l2.overall_avg_mshr_miss_latency::cpu0.inst 41047.887324                       # average overall mshr miss latency
system.l2.overall_avg_mshr_miss_latency::cpu0.data 40725.744476                       # average overall mshr miss latency
system.l2.overall_avg_mshr_miss_latency::cpu1.inst 40663.333333                       # average overall mshr miss latency
system.l2.overall_avg_mshr_miss_latency::cpu1.data 40563.352827                       # average overall mshr miss latency
system.l2.overall_avg_mshr_miss_latency::cpu2.inst 40810.559006                       # average overall mshr miss latency
system.l2.overall_avg_mshr_miss_latency::cpu2.data 40533.974359                       # average overall mshr miss latency
system.l2.overall_avg_mshr_miss_latency::total 40636.183937                       # average overall mshr miss latency
system.l2.no_allocate_misses                        0                       # Number of misses that were no-allocate
system.membus.trans_dist::ReadReq                1041                       # Transaction distribution
system.membus.trans_dist::ReadResp               1041                       # Transaction distribution
system.membus.trans_dist::UpgradeReq            74105                       # Transaction distribution
system.membus.trans_dist::SCUpgradeReq         326368                       # Transaction distribution
system.membus.trans_dist::UpgradeResp          121876                       # Transaction distribution
system.membus.trans_dist::ReadExReq              3767                       # Transaction distribution
system.membus.trans_dist::ReadExResp             3765                       # Transaction distribution
system.membus.pkt_count_system.l2.mem_side::system.physmem.port       531963                       # Packet count per connected master and slave (bytes)
system.membus.pkt_count::total                 531963                       # Packet count per connected master and slave (bytes)
system.membus.pkt_size_system.l2.mem_side::system.physmem.port       307584                       # Cumulative packet size per connected master and slave (bytes)
system.membus.pkt_size::total                  307584                       # Cumulative packet size per connected master and slave (bytes)
system.membus.snoops                           278599                       # Total snoops (count)
system.membus.snoop_fanout::samples            405447                       # Request fanout histogram
system.membus.snoop_fanout::mean                    0                       # Request fanout histogram
system.membus.snoop_fanout::stdev                   0                       # Request fanout histogram
system.membus.snoop_fanout::underflows              0      0.00%      0.00% # Request fanout histogram
system.membus.snoop_fanout::0                  405447    100.00%    100.00% # Request fanout histogram
system.membus.snoop_fanout::1                       0      0.00%    100.00% # Request fanout histogram
system.membus.snoop_fanout::overflows               0      0.00%    100.00% # Request fanout histogram
system.membus.snoop_fanout::min_value               0                       # Request fanout histogram
system.membus.snoop_fanout::max_value               0                       # Request fanout histogram
system.membus.snoop_fanout::total              405447                       # Request fanout histogram
system.membus.reqLayer0.occupancy           187036793                       # Layer occupancy (ticks)
system.membus.reqLayer0.utilization               0.4                       # Layer utilization (%)
system.membus.respLayer1.occupancy          205937393                       # Layer occupancy (ticks)
system.membus.respLayer1.utilization              0.4                       # Layer utilization (%)
system.tol2bus.trans_dist::ReadReq             920349                       # Transaction distribution
system.tol2bus.trans_dist::ReadResp            920349                       # Transaction distribution
system.tol2bus.trans_dist::Writeback           435851                       # Transaction distribution
system.tol2bus.trans_dist::UpgradeReq           74237                       # Transaction distribution
system.tol2bus.trans_dist::SCUpgradeReq        326370                       # Transaction distribution
system.tol2bus.trans_dist::UpgradeResp         400607                       # Transaction distribution
system.tol2bus.trans_dist::SCUpgradeFailReq          530                       # Transaction distribution
system.tol2bus.trans_dist::UpgradeFailResp          530                       # Transaction distribution
system.tol2bus.trans_dist::ReadExReq           253157                       # Transaction distribution
system.tol2bus.trans_dist::ReadExResp          253157                       # Transaction distribution
system.tol2bus.pkt_count_system.cpu0.icache.mem_side::system.l2.cpu_side          794                       # Packet count per connected master and slave (bytes)
system.tol2bus.pkt_count_system.cpu0.dcache.mem_side::system.l2.cpu_side         2773                       # Packet count per connected master and slave (bytes)
system.tol2bus.pkt_count_system.cpu1.icache.mem_side::system.l2.cpu_side         5394                       # Packet count per connected master and slave (bytes)
system.tol2bus.pkt_count_system.cpu1.dcache.mem_side::system.l2.cpu_side      1274022                       # Packet count per connected master and slave (bytes)
system.tol2bus.pkt_count_system.cpu2.icache.mem_side::system.l2.cpu_side         3648                       # Packet count per connected master and slave (bytes)
system.tol2bus.pkt_count_system.cpu2.dcache.mem_side::system.l2.cpu_side      1314620                       # Packet count per connected master and slave (bytes)
system.tol2bus.pkt_count::total               2601251                       # Packet count per connected master and slave (bytes)
system.tol2bus.pkt_size_system.cpu0.icache.mem_side::system.l2.cpu_side        25408                       # Cumulative packet size per connected master and slave (bytes)
system.tol2bus.pkt_size_system.cpu0.dcache.mem_side::system.l2.cpu_side       104768                       # Cumulative packet size per connected master and slave (bytes)
system.tol2bus.pkt_size_system.cpu1.icache.mem_side::system.l2.cpu_side       172608                       # Cumulative packet size per connected master and slave (bytes)
system.tol2bus.pkt_size_system.cpu1.dcache.mem_side::system.l2.cpu_side     28203840                       # Cumulative packet size per connected master and slave (bytes)
system.tol2bus.pkt_size_system.cpu2.icache.mem_side::system.l2.cpu_side       116736                       # Cumulative packet size per connected master and slave (bytes)
system.tol2bus.pkt_size_system.cpu2.dcache.mem_side::system.l2.cpu_side     29270912                       # Cumulative packet size per connected master and slave (bytes)
system.tol2bus.pkt_size::total               57894272                       # Cumulative packet size per connected master and slave (bytes)
system.tol2bus.snoops                          983886                       # Total snoops (count)
system.tol2bus.snoop_fanout::samples          2010494                       # Request fanout histogram
system.tol2bus.snoop_fanout::mean                   5                       # Request fanout histogram
system.tol2bus.snoop_fanout::stdev                  0                       # Request fanout histogram
system.tol2bus.snoop_fanout::underflows             0      0.00%      0.00% # Request fanout histogram
system.tol2bus.snoop_fanout::0                      0      0.00%      0.00% # Request fanout histogram
system.tol2bus.snoop_fanout::1                      0      0.00%      0.00% # Request fanout histogram
system.tol2bus.snoop_fanout::2                      0      0.00%      0.00% # Request fanout histogram
system.tol2bus.snoop_fanout::3                      0      0.00%      0.00% # Request fanout histogram
system.tol2bus.snoop_fanout::4                      0      0.00%      0.00% # Request fanout histogram
system.tol2bus.snoop_fanout::5                2010494    100.00%    100.00% # Request fanout histogram
system.tol2bus.snoop_fanout::6                      0      0.00%    100.00% # Request fanout histogram
system.tol2bus.snoop_fanout::overflows              0      0.00%    100.00% # Request fanout histogram
system.tol2bus.snoop_fanout::min_value              5                       # Request fanout histogram
system.tol2bus.snoop_fanout::max_value              5                       # Request fanout histogram
system.tol2bus.snoop_fanout::total            2010494                       # Request fanout histogram
system.tol2bus.reqLayer0.occupancy         1444957765                       # Layer occupancy (ticks)
system.tol2bus.reqLayer0.utilization              2.8                       # Layer utilization (%)
system.tol2bus.respLayer0.occupancy            595999                       # Layer occupancy (ticks)
system.tol2bus.respLayer0.utilization             0.0                       # Layer utilization (%)
system.tol2bus.respLayer1.occupancy           1701992                       # Layer occupancy (ticks)
system.tol2bus.respLayer1.utilization             0.0                       # Layer utilization (%)
system.tol2bus.respLayer4.occupancy           4071947                       # Layer occupancy (ticks)
system.tol2bus.respLayer4.utilization             0.0                       # Layer utilization (%)
system.tol2bus.respLayer5.occupancy         979358782                       # Layer occupancy (ticks)
system.tol2bus.respLayer5.utilization             1.9                       # Layer utilization (%)
system.tol2bus.respLayer8.occupancy           2755461                       # Layer occupancy (ticks)
system.tol2bus.respLayer8.utilization             0.0                       # Layer utilization (%)
system.tol2bus.respLayer9.occupancy         976119657                       # Layer occupancy (ticks)
system.tol2bus.respLayer9.utilization             1.9                       # Layer utilization (%)

---------- End Simulation Statistics   ----------
