
---------- Begin Simulation Statistics ----------
sim_seconds                                  0.075256                       # Number of seconds simulated
sim_ticks                                 75256119000                       # Number of ticks simulated
final_tick                                75256119000                       # Number of ticks from beginning of simulation (restored from checkpoints and never reset)
sim_freq                                 1000000000000                       # Frequency of simulated ticks
host_inst_rate                                 220597                       # Simulator instruction rate (inst/s)
host_op_rate                                   228214                       # Simulator op (including micro ops) rate (op/s)
host_tick_rate                               65157257                       # Simulator tick rate (ticks/s)
host_mem_usage                                 678396                       # Number of bytes of host memory used
host_seconds                                  1154.99                       # Real time elapsed on the host
sim_insts                                   254788170                       # Number of instructions simulated
sim_ops                                     263585034                       # Number of ops (including micro ops) simulated
system.voltage_domain.voltage                       1                       # Voltage in Volts
system.clk_domain.clock                          1000                       # Clock period in ticks
system.physmem.bytes_read::cpu0.inst            22528                       # Number of bytes read from this memory
system.physmem.bytes_read::cpu0.data            17344                       # Number of bytes read from this memory
system.physmem.bytes_read::cpu1.inst            16896                       # Number of bytes read from this memory
system.physmem.bytes_read::cpu1.data           187648                       # Number of bytes read from this memory
system.physmem.bytes_read::total               244416                       # Number of bytes read from this memory
system.physmem.bytes_inst_read::cpu0.inst        22528                       # Number of instructions bytes read from this memory
system.physmem.bytes_inst_read::cpu1.inst        16896                       # Number of instructions bytes read from this memory
system.physmem.bytes_inst_read::total           39424                       # Number of instructions bytes read from this memory
system.physmem.num_reads::cpu0.inst               352                       # Number of read requests responded to by this memory
system.physmem.num_reads::cpu0.data               271                       # Number of read requests responded to by this memory
system.physmem.num_reads::cpu1.inst               264                       # Number of read requests responded to by this memory
system.physmem.num_reads::cpu1.data              2932                       # Number of read requests responded to by this memory
system.physmem.num_reads::total                  3819                       # Number of read requests responded to by this memory
system.physmem.bw_read::cpu0.inst              299351                       # Total read bandwidth from this memory (bytes/s)
system.physmem.bw_read::cpu0.data              230466                       # Total read bandwidth from this memory (bytes/s)
system.physmem.bw_read::cpu1.inst              224513                       # Total read bandwidth from this memory (bytes/s)
system.physmem.bw_read::cpu1.data             2493458                       # Total read bandwidth from this memory (bytes/s)
system.physmem.bw_read::total                 3247789                       # Total read bandwidth from this memory (bytes/s)
system.physmem.bw_inst_read::cpu0.inst         299351                       # Instruction read bandwidth from this memory (bytes/s)
system.physmem.bw_inst_read::cpu1.inst         224513                       # Instruction read bandwidth from this memory (bytes/s)
system.physmem.bw_inst_read::total             523864                       # Instruction read bandwidth from this memory (bytes/s)
system.physmem.bw_total::cpu0.inst             299351                       # Total bandwidth to/from this memory (bytes/s)
system.physmem.bw_total::cpu0.data             230466                       # Total bandwidth to/from this memory (bytes/s)
system.physmem.bw_total::cpu1.inst             224513                       # Total bandwidth to/from this memory (bytes/s)
system.physmem.bw_total::cpu1.data            2493458                       # Total bandwidth to/from this memory (bytes/s)
system.physmem.bw_total::total                3247789                       # Total bandwidth to/from this memory (bytes/s)
system.cpu0.branchPred.lookups               37617127                       # Number of BP lookups
system.cpu0.branchPred.condPredicted         37616280                       # Number of conditional branches predicted
system.cpu0.branchPred.condIncorrect              567                       # Number of conditional branches incorrect
system.cpu0.branchPred.BTBLookups            37615567                       # Number of BTB lookups
system.cpu0.branchPred.BTBHits               37615186                       # Number of BTB hits
system.cpu0.branchPred.BTBCorrect                   0                       # Number of correct BTB predictions (this stat may not work properly.
system.cpu0.branchPred.BTBHitPct            99.998987                       # BTB Hit Percentage
system.cpu0.branchPred.usedRAS                    267                       # Number of times the RAS was used to get a target.
system.cpu0.branchPred.RASInCorrect                55                       # Number of incorrect RAS predictions.
system.cpu0.dstage2_mmu.stage2_tlb.walker.walks            0                       # Table walker walks requested
system.cpu0.dstage2_mmu.stage2_tlb.walker.walkRequestOrigin_Requested::Data            0                       # Table walker requests started/completed, data/inst
system.cpu0.dstage2_mmu.stage2_tlb.walker.walkRequestOrigin_Requested::Inst            0                       # Table walker requests started/completed, data/inst
system.cpu0.dstage2_mmu.stage2_tlb.walker.walkRequestOrigin_Requested::total            0                       # Table walker requests started/completed, data/inst
system.cpu0.dstage2_mmu.stage2_tlb.walker.walkRequestOrigin_Completed::Data            0                       # Table walker requests started/completed, data/inst
system.cpu0.dstage2_mmu.stage2_tlb.walker.walkRequestOrigin_Completed::Inst            0                       # Table walker requests started/completed, data/inst
system.cpu0.dstage2_mmu.stage2_tlb.walker.walkRequestOrigin_Completed::total            0                       # Table walker requests started/completed, data/inst
system.cpu0.dstage2_mmu.stage2_tlb.walker.walkRequestOrigin::total            0                       # Table walker requests started/completed, data/inst
system.cpu0.dstage2_mmu.stage2_tlb.inst_hits            0                       # ITB inst hits
system.cpu0.dstage2_mmu.stage2_tlb.inst_misses            0                       # ITB inst misses
system.cpu0.dstage2_mmu.stage2_tlb.read_hits            0                       # DTB read hits
system.cpu0.dstage2_mmu.stage2_tlb.read_misses            0                       # DTB read misses
system.cpu0.dstage2_mmu.stage2_tlb.write_hits            0                       # DTB write hits
system.cpu0.dstage2_mmu.stage2_tlb.write_misses            0                       # DTB write misses
system.cpu0.dstage2_mmu.stage2_tlb.flush_tlb            0                       # Number of times complete TLB was flushed
system.cpu0.dstage2_mmu.stage2_tlb.flush_tlb_mva            0                       # Number of times TLB was flushed by MVA
system.cpu0.dstage2_mmu.stage2_tlb.flush_tlb_mva_asid            0                       # Number of times TLB was flushed by MVA & ASID
system.cpu0.dstage2_mmu.stage2_tlb.flush_tlb_asid            0                       # Number of times TLB was flushed by ASID
system.cpu0.dstage2_mmu.stage2_tlb.flush_entries            0                       # Number of entries that have been flushed from TLB
system.cpu0.dstage2_mmu.stage2_tlb.align_faults            0                       # Number of TLB faults due to alignment restrictions
system.cpu0.dstage2_mmu.stage2_tlb.prefetch_faults            0                       # Number of TLB faults due to prefetch
system.cpu0.dstage2_mmu.stage2_tlb.domain_faults            0                       # Number of TLB faults due to domain restrictions
system.cpu0.dstage2_mmu.stage2_tlb.perms_faults            0                       # Number of TLB faults due to permissions restrictions
system.cpu0.dstage2_mmu.stage2_tlb.read_accesses            0                       # DTB read accesses
system.cpu0.dstage2_mmu.stage2_tlb.write_accesses            0                       # DTB write accesses
system.cpu0.dstage2_mmu.stage2_tlb.inst_accesses            0                       # ITB inst accesses
system.cpu0.dstage2_mmu.stage2_tlb.hits             0                       # DTB hits
system.cpu0.dstage2_mmu.stage2_tlb.misses            0                       # DTB misses
system.cpu0.dstage2_mmu.stage2_tlb.accesses            0                       # DTB accesses
system.cpu0.dtb.walker.walks                        0                       # Table walker walks requested
system.cpu0.dtb.walker.walkRequestOrigin_Requested::Data            0                       # Table walker requests started/completed, data/inst
system.cpu0.dtb.walker.walkRequestOrigin_Requested::Inst            0                       # Table walker requests started/completed, data/inst
system.cpu0.dtb.walker.walkRequestOrigin_Requested::total            0                       # Table walker requests started/completed, data/inst
system.cpu0.dtb.walker.walkRequestOrigin_Completed::Data            0                       # Table walker requests started/completed, data/inst
system.cpu0.dtb.walker.walkRequestOrigin_Completed::Inst            0                       # Table walker requests started/completed, data/inst
system.cpu0.dtb.walker.walkRequestOrigin_Completed::total            0                       # Table walker requests started/completed, data/inst
system.cpu0.dtb.walker.walkRequestOrigin::total            0                       # Table walker requests started/completed, data/inst
system.cpu0.dtb.inst_hits                           0                       # ITB inst hits
system.cpu0.dtb.inst_misses                         0                       # ITB inst misses
system.cpu0.dtb.read_hits                           0                       # DTB read hits
system.cpu0.dtb.read_misses                         0                       # DTB read misses
system.cpu0.dtb.write_hits                          0                       # DTB write hits
system.cpu0.dtb.write_misses                        0                       # DTB write misses
system.cpu0.dtb.flush_tlb                           0                       # Number of times complete TLB was flushed
system.cpu0.dtb.flush_tlb_mva                       0                       # Number of times TLB was flushed by MVA
system.cpu0.dtb.flush_tlb_mva_asid                  0                       # Number of times TLB was flushed by MVA & ASID
system.cpu0.dtb.flush_tlb_asid                      0                       # Number of times TLB was flushed by ASID
system.cpu0.dtb.flush_entries                       0                       # Number of entries that have been flushed from TLB
system.cpu0.dtb.align_faults                        0                       # Number of TLB faults due to alignment restrictions
system.cpu0.dtb.prefetch_faults                     0                       # Number of TLB faults due to prefetch
system.cpu0.dtb.domain_faults                       0                       # Number of TLB faults due to domain restrictions
system.cpu0.dtb.perms_faults                        0                       # Number of TLB faults due to permissions restrictions
system.cpu0.dtb.read_accesses                       0                       # DTB read accesses
system.cpu0.dtb.write_accesses                      0                       # DTB write accesses
system.cpu0.dtb.inst_accesses                       0                       # ITB inst accesses
system.cpu0.dtb.hits                                0                       # DTB hits
system.cpu0.dtb.misses                              0                       # DTB misses
system.cpu0.dtb.accesses                            0                       # DTB accesses
system.cpu0.istage2_mmu.stage2_tlb.walker.walks            0                       # Table walker walks requested
system.cpu0.istage2_mmu.stage2_tlb.walker.walkRequestOrigin_Requested::Data            0                       # Table walker requests started/completed, data/inst
system.cpu0.istage2_mmu.stage2_tlb.walker.walkRequestOrigin_Requested::Inst            0                       # Table walker requests started/completed, data/inst
system.cpu0.istage2_mmu.stage2_tlb.walker.walkRequestOrigin_Requested::total            0                       # Table walker requests started/completed, data/inst
system.cpu0.istage2_mmu.stage2_tlb.walker.walkRequestOrigin_Completed::Data            0                       # Table walker requests started/completed, data/inst
system.cpu0.istage2_mmu.stage2_tlb.walker.walkRequestOrigin_Completed::Inst            0                       # Table walker requests started/completed, data/inst
system.cpu0.istage2_mmu.stage2_tlb.walker.walkRequestOrigin_Completed::total            0                       # Table walker requests started/completed, data/inst
system.cpu0.istage2_mmu.stage2_tlb.walker.walkRequestOrigin::total            0                       # Table walker requests started/completed, data/inst
system.cpu0.istage2_mmu.stage2_tlb.inst_hits            0                       # ITB inst hits
system.cpu0.istage2_mmu.stage2_tlb.inst_misses            0                       # ITB inst misses
system.cpu0.istage2_mmu.stage2_tlb.read_hits            0                       # DTB read hits
system.cpu0.istage2_mmu.stage2_tlb.read_misses            0                       # DTB read misses
system.cpu0.istage2_mmu.stage2_tlb.write_hits            0                       # DTB write hits
system.cpu0.istage2_mmu.stage2_tlb.write_misses            0                       # DTB write misses
system.cpu0.istage2_mmu.stage2_tlb.flush_tlb            0                       # Number of times complete TLB was flushed
system.cpu0.istage2_mmu.stage2_tlb.flush_tlb_mva            0                       # Number of times TLB was flushed by MVA
system.cpu0.istage2_mmu.stage2_tlb.flush_tlb_mva_asid            0                       # Number of times TLB was flushed by MVA & ASID
system.cpu0.istage2_mmu.stage2_tlb.flush_tlb_asid            0                       # Number of times TLB was flushed by ASID
system.cpu0.istage2_mmu.stage2_tlb.flush_entries            0                       # Number of entries that have been flushed from TLB
system.cpu0.istage2_mmu.stage2_tlb.align_faults            0                       # Number of TLB faults due to alignment restrictions
system.cpu0.istage2_mmu.stage2_tlb.prefetch_faults            0                       # Number of TLB faults due to prefetch
system.cpu0.istage2_mmu.stage2_tlb.domain_faults            0                       # Number of TLB faults due to domain restrictions
system.cpu0.istage2_mmu.stage2_tlb.perms_faults            0                       # Number of TLB faults due to permissions restrictions
system.cpu0.istage2_mmu.stage2_tlb.read_accesses            0                       # DTB read accesses
system.cpu0.istage2_mmu.stage2_tlb.write_accesses            0                       # DTB write accesses
system.cpu0.istage2_mmu.stage2_tlb.inst_accesses            0                       # ITB inst accesses
system.cpu0.istage2_mmu.stage2_tlb.hits             0                       # DTB hits
system.cpu0.istage2_mmu.stage2_tlb.misses            0                       # DTB misses
system.cpu0.istage2_mmu.stage2_tlb.accesses            0                       # DTB accesses
system.cpu0.itb.walker.walks                        0                       # Table walker walks requested
system.cpu0.itb.walker.walkRequestOrigin_Requested::Data            0                       # Table walker requests started/completed, data/inst
system.cpu0.itb.walker.walkRequestOrigin_Requested::Inst            0                       # Table walker requests started/completed, data/inst
system.cpu0.itb.walker.walkRequestOrigin_Requested::total            0                       # Table walker requests started/completed, data/inst
system.cpu0.itb.walker.walkRequestOrigin_Completed::Data            0                       # Table walker requests started/completed, data/inst
system.cpu0.itb.walker.walkRequestOrigin_Completed::Inst            0                       # Table walker requests started/completed, data/inst
system.cpu0.itb.walker.walkRequestOrigin_Completed::total            0                       # Table walker requests started/completed, data/inst
system.cpu0.itb.walker.walkRequestOrigin::total            0                       # Table walker requests started/completed, data/inst
system.cpu0.itb.inst_hits                           0                       # ITB inst hits
system.cpu0.itb.inst_misses                         0                       # ITB inst misses
system.cpu0.itb.read_hits                           0                       # DTB read hits
system.cpu0.itb.read_misses                         0                       # DTB read misses
system.cpu0.itb.write_hits                          0                       # DTB write hits
system.cpu0.itb.write_misses                        0                       # DTB write misses
system.cpu0.itb.flush_tlb                           0                       # Number of times complete TLB was flushed
system.cpu0.itb.flush_tlb_mva                       0                       # Number of times TLB was flushed by MVA
system.cpu0.itb.flush_tlb_mva_asid                  0                       # Number of times TLB was flushed by MVA & ASID
system.cpu0.itb.flush_tlb_asid                      0                       # Number of times TLB was flushed by ASID
system.cpu0.itb.flush_entries                       0                       # Number of entries that have been flushed from TLB
system.cpu0.itb.align_faults                        0                       # Number of TLB faults due to alignment restrictions
system.cpu0.itb.prefetch_faults                     0                       # Number of TLB faults due to prefetch
system.cpu0.itb.domain_faults                       0                       # Number of TLB faults due to domain restrictions
system.cpu0.itb.perms_faults                        0                       # Number of TLB faults due to permissions restrictions
system.cpu0.itb.read_accesses                       0                       # DTB read accesses
system.cpu0.itb.write_accesses                      0                       # DTB write accesses
system.cpu0.itb.inst_accesses                       0                       # ITB inst accesses
system.cpu0.itb.hits                                0                       # DTB hits
system.cpu0.itb.misses                              0                       # DTB misses
system.cpu0.itb.accesses                            0                       # DTB accesses
system.cpu0.workload.num_syscalls                  44                       # Number of system calls
system.cpu0.numCycles                        75256120                       # number of cpu cycles simulated
system.cpu0.numWorkItemsStarted                     0                       # number of work items this cpu started
system.cpu0.numWorkItemsCompleted                   0                       # number of work items this cpu completed
system.cpu0.fetch.icacheStallCycles              8141                       # Number of cycles fetch is stalled on an Icache miss
system.cpu0.fetch.Insts                     188086359                       # Number of instructions fetch has processed
system.cpu0.fetch.Branches                   37617127                       # Number of branches that fetch encountered
system.cpu0.fetch.predictedBranches          37615453                       # Number of branches that fetch has predicted taken
system.cpu0.fetch.Cycles                     75238758                       # Number of cycles fetch has run and was not squashing or blocked
system.cpu0.fetch.SquashCycles                   1475                       # Number of cycles fetch has spent squashing
system.cpu0.fetch.PendingTrapStallCycles          162                       # Number of stall cycles due to pending traps
system.cpu0.fetch.CacheLines                     1882                       # Number of cache lines fetched
system.cpu0.fetch.IcacheSquashes                  250                       # Number of outstanding Icache misses that were squashed
system.cpu0.fetch.rateDist::samples          75247798                       # Number of instructions fetched each cycle (Total)
system.cpu0.fetch.rateDist::mean             2.499615                       # Number of instructions fetched each cycle (Total)
system.cpu0.fetch.rateDist::stdev            0.500991                       # Number of instructions fetched each cycle (Total)
system.cpu0.fetch.rateDist::underflows              0      0.00%      0.00% # Number of instructions fetched each cycle (Total)
system.cpu0.fetch.rateDist::0                   12246      0.02%      0.02% # Number of instructions fetched each cycle (Total)
system.cpu0.fetch.rateDist::1                     571      0.00%      0.02% # Number of instructions fetched each cycle (Total)
system.cpu0.fetch.rateDist::2                37614954     49.99%     50.01% # Number of instructions fetched each cycle (Total)
system.cpu0.fetch.rateDist::3                37620027     49.99%    100.00% # Number of instructions fetched each cycle (Total)
system.cpu0.fetch.rateDist::overflows               0      0.00%    100.00% # Number of instructions fetched each cycle (Total)
system.cpu0.fetch.rateDist::min_value               0                       # Number of instructions fetched each cycle (Total)
system.cpu0.fetch.rateDist::max_value               3                       # Number of instructions fetched each cycle (Total)
system.cpu0.fetch.rateDist::total            75247798                       # Number of instructions fetched each cycle (Total)
system.cpu0.fetch.branchRate                 0.499855                       # Number of branch fetches per cycle
system.cpu0.fetch.rate                       2.499283                       # Number of inst fetches per cycle
system.cpu0.decode.IdleCycles                    7932                       # Number of cycles decode is idle
system.cpu0.decode.BlockedCycles                 4951                       # Number of cycles decode is blocked
system.cpu0.decode.RunCycles                 75233487                       # Number of cycles decode is running
system.cpu0.decode.UnblockCycles                  883                       # Number of cycles decode is unblocking
system.cpu0.decode.SquashCycles                   545                       # Number of cycles decode is squashing
system.cpu0.decode.BranchResolved                 343                       # Number of times decode resolved a branch
system.cpu0.decode.BranchMispred                  198                       # Number of times decode detected a branch misprediction
system.cpu0.decode.DecodedInsts             188088130                       # Number of instructions handled by decode
system.cpu0.decode.SquashedInsts                  459                       # Number of squashed instructions handled by decode
system.cpu0.rename.SquashCycles                   545                       # Number of cycles rename is squashing
system.cpu0.rename.IdleCycles                    8604                       # Number of cycles rename is idle
system.cpu0.rename.BlockCycles                    645                       # Number of cycles rename is blocking
system.cpu0.rename.serializeStallCycles          1589                       # count of cycles rename stalled for serializing inst
system.cpu0.rename.RunCycles                 75233589                       # Number of cycles rename is running
system.cpu0.rename.UnblockCycles                 2826                       # Number of cycles rename is unblocking
system.cpu0.rename.RenamedInsts             188087126                       # Number of instructions processed by rename
system.cpu0.rename.IQFullEvents                    20                       # Number of times rename has blocked due to IQ full
system.cpu0.rename.LQFullEvents                    11                       # Number of times rename has blocked due to LQ full
system.cpu0.rename.SQFullEvents                  2656                       # Number of times rename has blocked due to SQ full
system.cpu0.rename.RenamedOperands          188088793                       # Number of destination operands rename has renamed
system.cpu0.rename.RenameLookups            865205319                       # Number of register rename lookups that rename has made
system.cpu0.rename.int_rename_lookups       188092250                       # Number of integer rename lookups
system.cpu0.rename.fp_rename_lookups               16                       # Number of floating rename lookups
system.cpu0.rename.CommittedMaps            188081020                       # Number of HB maps that are committed
system.cpu0.rename.UndoneMaps                    7773                       # Number of HB maps that are undone due to squashing
system.cpu0.rename.serializingInsts                46                       # count of serializing insts renamed
system.cpu0.rename.tempSerializingInsts            45                       # count of temporary serializing insts renamed
system.cpu0.rename.skidInsts                     1206                       # count of insts added to the skid buffer
system.cpu0.memDep0.insertedLoads            75230074                       # Number of loads inserted to the mem dependence unit.
system.cpu0.memDep0.insertedStores           37617517                       # Number of stores inserted to the mem dependence unit.
system.cpu0.memDep0.conflictingLoads         37613394                       # Number of conflicting loads.
system.cpu0.memDep0.conflictingStores        37613369                       # Number of conflicting stores.
system.cpu0.iq.iqInstsAdded                 188085249                       # Number of instructions added to the IQ (excludes non-spec)
system.cpu0.iq.iqNonSpecInstsAdded                 67                       # Number of non-speculative instructions added to the IQ
system.cpu0.iq.iqInstsIssued                188082879                       # Number of instructions issued
system.cpu0.iq.iqSquashedInstsIssued              508                       # Number of squashed instructions issued
system.cpu0.iq.iqSquashedInstsExamined           5345                       # Number of squashed instructions iterated over during squash; mainly for profiling
system.cpu0.iq.iqSquashedOperandsExamined        13908                       # Number of squashed operands that are examined and possibly removed from graph
system.cpu0.iq.iqSquashedNonSpecRemoved             4                       # Number of squashed non-spec instructions that were removed
system.cpu0.iq.issued_per_cycle::samples     75247798                       # Number of insts issued each cycle
system.cpu0.iq.issued_per_cycle::mean        2.499513                       # Number of insts issued each cycle
system.cpu0.iq.issued_per_cycle::stdev       0.707856                       # Number of insts issued each cycle
system.cpu0.iq.issued_per_cycle::underflows            0      0.00%      0.00% # Number of insts issued each cycle
system.cpu0.iq.issued_per_cycle::0              13128      0.02%      0.02% # Number of insts issued each cycle
system.cpu0.iq.issued_per_cycle::1            9406472     12.50%     12.52% # Number of insts issued each cycle
system.cpu0.iq.issued_per_cycle::2           18808187     24.99%     37.51% # Number of insts issued each cycle
system.cpu0.iq.issued_per_cycle::3           47020011     62.49%    100.00% # Number of insts issued each cycle
system.cpu0.iq.issued_per_cycle::overflows            0      0.00%    100.00% # Number of insts issued each cycle
system.cpu0.iq.issued_per_cycle::min_value            0                       # Number of insts issued each cycle
system.cpu0.iq.issued_per_cycle::max_value            3                       # Number of insts issued each cycle
system.cpu0.iq.issued_per_cycle::total       75247798                       # Number of insts issued each cycle
system.cpu0.iq.fu_full::No_OpClass                  0                       # attempts to use FU when none available
system.cpu0.iq.fu_full::IntAlu                      0                       # attempts to use FU when none available
system.cpu0.iq.fu_full::IntMult                     0                       # attempts to use FU when none available
system.cpu0.iq.fu_full::IntDiv                      0                       # attempts to use FU when none available
system.cpu0.iq.fu_full::FloatAdd                    0                       # attempts to use FU when none available
system.cpu0.iq.fu_full::FloatCmp                    0                       # attempts to use FU when none available
system.cpu0.iq.fu_full::FloatCvt                    0                       # attempts to use FU when none available
system.cpu0.iq.fu_full::FloatMult                   0                       # attempts to use FU when none available
system.cpu0.iq.fu_full::FloatDiv                    0                       # attempts to use FU when none available
system.cpu0.iq.fu_full::FloatSqrt                   0                       # attempts to use FU when none available
system.cpu0.iq.fu_full::SimdAdd                     0                       # attempts to use FU when none available
system.cpu0.iq.fu_full::SimdAddAcc                  0                       # attempts to use FU when none available
system.cpu0.iq.fu_full::SimdAlu                     0                       # attempts to use FU when none available
system.cpu0.iq.fu_full::SimdCmp                     0                       # attempts to use FU when none available
system.cpu0.iq.fu_full::SimdCvt                     0                       # attempts to use FU when none available
system.cpu0.iq.fu_full::SimdMisc                    0                       # attempts to use FU when none available
system.cpu0.iq.fu_full::SimdMult                    0                       # attempts to use FU when none available
system.cpu0.iq.fu_full::SimdMultAcc                 0                       # attempts to use FU when none available
system.cpu0.iq.fu_full::SimdShift                   0                       # attempts to use FU when none available
system.cpu0.iq.fu_full::SimdShiftAcc                0                       # attempts to use FU when none available
system.cpu0.iq.fu_full::SimdSqrt                    0                       # attempts to use FU when none available
system.cpu0.iq.fu_full::SimdFloatAdd                0                       # attempts to use FU when none available
system.cpu0.iq.fu_full::SimdFloatAlu                0                       # attempts to use FU when none available
system.cpu0.iq.fu_full::SimdFloatCmp                0                       # attempts to use FU when none available
system.cpu0.iq.fu_full::SimdFloatCvt                0                       # attempts to use FU when none available
system.cpu0.iq.fu_full::SimdFloatDiv                0                       # attempts to use FU when none available
system.cpu0.iq.fu_full::SimdFloatMisc               0                       # attempts to use FU when none available
system.cpu0.iq.fu_full::SimdFloatMult               0                       # attempts to use FU when none available
system.cpu0.iq.fu_full::SimdFloatMultAcc            0                       # attempts to use FU when none available
system.cpu0.iq.fu_full::SimdFloatSqrt               0                       # attempts to use FU when none available
system.cpu0.iq.fu_full::MemRead                     0                       # attempts to use FU when none available
system.cpu0.iq.fu_full::MemWrite                    0                       # attempts to use FU when none available
system.cpu0.iq.fu_full::IprAccess                   0                       # attempts to use FU when none available
system.cpu0.iq.fu_full::InstPrefetch                0                       # attempts to use FU when none available
system.cpu0.iq.FU_type_0::No_OpClass                0      0.00%      0.00% # Type of FU issued
system.cpu0.iq.FU_type_0::IntAlu             75236095     40.00%     40.00% # Type of FU issued
system.cpu0.iq.FU_type_0::IntMult                   6      0.00%     40.00% # Type of FU issued
system.cpu0.iq.FU_type_0::IntDiv                    0      0.00%     40.00% # Type of FU issued
system.cpu0.iq.FU_type_0::FloatAdd                  0      0.00%     40.00% # Type of FU issued
system.cpu0.iq.FU_type_0::FloatCmp                  0      0.00%     40.00% # Type of FU issued
system.cpu0.iq.FU_type_0::FloatCvt                  0      0.00%     40.00% # Type of FU issued
system.cpu0.iq.FU_type_0::FloatMult                 0      0.00%     40.00% # Type of FU issued
system.cpu0.iq.FU_type_0::FloatDiv                  0      0.00%     40.00% # Type of FU issued
system.cpu0.iq.FU_type_0::FloatSqrt                 0      0.00%     40.00% # Type of FU issued
system.cpu0.iq.FU_type_0::SimdAdd                   0      0.00%     40.00% # Type of FU issued
system.cpu0.iq.FU_type_0::SimdAddAcc                0      0.00%     40.00% # Type of FU issued
system.cpu0.iq.FU_type_0::SimdAlu                   0      0.00%     40.00% # Type of FU issued
system.cpu0.iq.FU_type_0::SimdCmp                   0      0.00%     40.00% # Type of FU issued
system.cpu0.iq.FU_type_0::SimdCvt                   0      0.00%     40.00% # Type of FU issued
system.cpu0.iq.FU_type_0::SimdMisc                  0      0.00%     40.00% # Type of FU issued
system.cpu0.iq.FU_type_0::SimdMult                  0      0.00%     40.00% # Type of FU issued
system.cpu0.iq.FU_type_0::SimdMultAcc               0      0.00%     40.00% # Type of FU issued
system.cpu0.iq.FU_type_0::SimdShift                 0      0.00%     40.00% # Type of FU issued
system.cpu0.iq.FU_type_0::SimdShiftAcc              0      0.00%     40.00% # Type of FU issued
system.cpu0.iq.FU_type_0::SimdSqrt                  0      0.00%     40.00% # Type of FU issued
system.cpu0.iq.FU_type_0::SimdFloatAdd              0      0.00%     40.00% # Type of FU issued
system.cpu0.iq.FU_type_0::SimdFloatAlu              0      0.00%     40.00% # Type of FU issued
system.cpu0.iq.FU_type_0::SimdFloatCmp              0      0.00%     40.00% # Type of FU issued
system.cpu0.iq.FU_type_0::SimdFloatCvt              0      0.00%     40.00% # Type of FU issued
system.cpu0.iq.FU_type_0::SimdFloatDiv              0      0.00%     40.00% # Type of FU issued
system.cpu0.iq.FU_type_0::SimdFloatMisc             3      0.00%     40.00% # Type of FU issued
system.cpu0.iq.FU_type_0::SimdFloatMult             0      0.00%     40.00% # Type of FU issued
system.cpu0.iq.FU_type_0::SimdFloatMultAcc            0      0.00%     40.00% # Type of FU issued
system.cpu0.iq.FU_type_0::SimdFloatSqrt             0      0.00%     40.00% # Type of FU issued
system.cpu0.iq.FU_type_0::MemRead            75229556     40.00%     80.00% # Type of FU issued
system.cpu0.iq.FU_type_0::MemWrite           37617219     20.00%    100.00% # Type of FU issued
system.cpu0.iq.FU_type_0::IprAccess                 0      0.00%    100.00% # Type of FU issued
system.cpu0.iq.FU_type_0::InstPrefetch              0      0.00%    100.00% # Type of FU issued
system.cpu0.iq.FU_type_0::total             188082879                       # Type of FU issued
system.cpu0.iq.rate                          2.499237                       # Inst issue rate
system.cpu0.iq.fu_busy_cnt                          0                       # FU busy when requested
system.cpu0.iq.fu_busy_rate                         0                       # FU busy rate (busy events/executed inst)
system.cpu0.iq.int_inst_queue_reads         451414032                       # Number of integer instruction queue reads
system.cpu0.iq.int_inst_queue_writes        188090806                       # Number of integer instruction queue writes
system.cpu0.iq.int_inst_queue_wakeup_accesses    188082079                       # Number of integer instruction queue wakeup accesses
system.cpu0.iq.fp_inst_queue_reads                 32                       # Number of floating instruction queue reads
system.cpu0.iq.fp_inst_queue_writes                16                       # Number of floating instruction queue writes
system.cpu0.iq.fp_inst_queue_wakeup_accesses           16                       # Number of floating instruction queue wakeup accesses
system.cpu0.iq.int_alu_accesses             188082863                       # Number of integer alu accesses
system.cpu0.iq.fp_alu_accesses                     16                       # Number of floating point alu accesses
system.cpu0.iew.lsq.thread0.forwLoads        37613691                       # Number of loads that had data forwarded from stores
system.cpu0.iew.lsq.thread0.invAddrLoads            0                       # Number of loads ignored due to an invalid address
system.cpu0.iew.lsq.thread0.squashedLoads         1568                       # Number of loads squashed
system.cpu0.iew.lsq.thread0.ignoredResponses            2                       # Number of memory responses ignored because the instruction is squashed
system.cpu0.iew.lsq.thread0.memOrderViolation          161                       # Number of memory ordering violations
system.cpu0.iew.lsq.thread0.squashedStores          590                       # Number of stores squashed
system.cpu0.iew.lsq.thread0.invAddrSwpfs            0                       # Number of software prefetches ignored due to an invalid address
system.cpu0.iew.lsq.thread0.blockedLoads            0                       # Number of blocked loads due to partial load-store forwarding
system.cpu0.iew.lsq.thread0.rescheduledLoads            4                       # Number of loads that were rescheduled
system.cpu0.iew.lsq.thread0.cacheBlocked            0                       # Number of times an access to memory failed due to the cache being blocked
system.cpu0.iew.iewIdleCycles                       0                       # Number of cycles IEW is idle
system.cpu0.iew.iewSquashCycles                   545                       # Number of cycles IEW is squashing
system.cpu0.iew.iewBlockCycles                    506                       # Number of cycles IEW is blocking
system.cpu0.iew.iewUnblockCycles                  137                       # Number of cycles IEW is unblocking
system.cpu0.iew.iewDispatchedInsts          188085335                       # Number of instructions dispatched to IQ
system.cpu0.iew.iewDispSquashedInsts              244                       # Number of squashed instructions skipped by dispatch
system.cpu0.iew.iewDispLoadInsts             75230074                       # Number of dispatched load instructions
system.cpu0.iew.iewDispStoreInsts            37617517                       # Number of dispatched store instructions
system.cpu0.iew.iewDispNonSpecInsts                41                       # Number of dispatched non-speculative instructions
system.cpu0.iew.iewIQFullEvents                    11                       # Number of times the IQ has become full, causing a stall
system.cpu0.iew.iewLSQFullEvents                    0                       # Number of times the LSQ has become full, causing a stall
system.cpu0.iew.memOrderViolationEvents           161                       # Number of memory order violations
system.cpu0.iew.predictedTakenIncorrect           102                       # Number of branches that were predicted taken incorrectly
system.cpu0.iew.predictedNotTakenIncorrect          295                       # Number of branches that were predicted not taken incorrectly
system.cpu0.iew.branchMispredicts                 397                       # Number of branch mispredicts detected at execute
system.cpu0.iew.iewExecutedInsts            188082372                       # Number of executed instructions
system.cpu0.iew.iewExecLoadInsts             75229445                       # Number of load instructions executed
system.cpu0.iew.iewExecSquashedInsts              507                       # Number of squashed instructions skipped in execute
system.cpu0.iew.exec_swp                            0                       # number of swp insts executed
system.cpu0.iew.exec_nop                           19                       # number of nop insts executed
system.cpu0.iew.exec_refs                   112846479                       # number of memory reference insts executed
system.cpu0.iew.exec_branches                37615564                       # Number of branches executed
system.cpu0.iew.exec_forward_branches             797                       # Number of forward branches executed
system.cpu0.iew.exec_backward_branches       37614467                       # Number of backward branches executed
system.cpu0.iew.exec_taken_forward_branches          291                       # Number of forward branches executed that is taken
system.cpu0.iew.exec_nottaken_forward_branches          506                       # Number of forward branches executed that is not taken
system.cpu0.iew.exec_taken_backward_branches     37614235                       # Number of backward branches executed that is taken
system.cpu0.iew.exec_nottaken_backward_branches          232                       # Number of backward branches executed that is not taken
system.cpu0.iew.exec_stores                  37617034                       # Number of stores executed
system.cpu0.iew.exec_rate                    2.499230                       # Inst execution rate
system.cpu0.iew.wb_sent                     188082162                       # cumulative count of insts sent to commit
system.cpu0.iew.wb_count                    188082095                       # cumulative count of insts written-back
system.cpu0.iew.wb_producers                112847249                       # num instructions producing a value
system.cpu0.iew.wb_consumers                112857132                       # num instructions consuming a value
system.cpu0.iew.wb_penalized                        0                       # number of instrctions required to write to 'other' IQ
system.cpu0.iew.wb_rate                      2.499227                       # insts written-back per cycle
system.cpu0.iew.wb_fanout                    0.999912                       # average fanout of values written-back
system.cpu0.iew.wb_penalized_rate                   0                       # fraction of instructions written-back that wrote to 'other' IQ
system.cpu0.commit.commitSquashedInsts           5363                       # The number of squashed insts skipped by commit
system.cpu0.commit.commitNonSpecStalls             63                       # The number of times commit has been forced to stall to communicate backwards
system.cpu0.commit.branchMispredicts              375                       # The number of times a branch was mispredicted
system.cpu0.commit.committed_per_cycle::samples     75246850                       # Number of insts commited each cycle
system.cpu0.commit.committed_per_cycle::mean     2.499506                       # Number of insts commited each cycle
system.cpu0.commit.committed_per_cycle::stdev     1.581354                       # Number of insts commited each cycle
system.cpu0.commit.committed_per_cycle::underflows            0      0.00%      0.00% # Number of insts commited each cycle
system.cpu0.commit.committed_per_cycle::0        14055      0.02%      0.02% # Number of insts commited each cycle
system.cpu0.commit.committed_per_cycle::1     37615960     49.99%     50.01% # Number of insts commited each cycle
system.cpu0.commit.committed_per_cycle::2         1248      0.00%     50.01% # Number of insts commited each cycle
system.cpu0.commit.committed_per_cycle::3      9405196     12.50%     62.51% # Number of insts commited each cycle
system.cpu0.commit.committed_per_cycle::4     18806688     24.99%     87.50% # Number of insts commited each cycle
system.cpu0.commit.committed_per_cycle::5      9403378     12.50%    100.00% # Number of insts commited each cycle
system.cpu0.commit.committed_per_cycle::6           69      0.00%    100.00% # Number of insts commited each cycle
system.cpu0.commit.committed_per_cycle::7          177      0.00%    100.00% # Number of insts commited each cycle
system.cpu0.commit.committed_per_cycle::8           79      0.00%    100.00% # Number of insts commited each cycle
system.cpu0.commit.committed_per_cycle::overflows            0      0.00%    100.00% # Number of insts commited each cycle
system.cpu0.commit.committed_per_cycle::min_value            0                       # Number of insts commited each cycle
system.cpu0.commit.committed_per_cycle::max_value            8                       # Number of insts commited each cycle
system.cpu0.commit.committed_per_cycle::total     75246850                       # Number of insts commited each cycle
system.cpu0.commit.committedInsts           188076667                       # Number of instructions committed
system.cpu0.commit.committedOps             188079971                       # Number of ops (including micro ops) committed
system.cpu0.commit.swp_count                        0                       # Number of s/w prefetches committed
system.cpu0.commit.refs                     112845433                       # Number of memory references committed
system.cpu0.commit.loads                     75228506                       # Number of loads committed
system.cpu0.commit.membars                         26                       # Number of memory barriers committed
system.cpu0.commit.branches                  37615155                       # Number of branches committed
system.cpu0.commit.fp_insts                        16                       # Number of committed floating point instructions.
system.cpu0.commit.int_insts                150465182                       # Number of committed integer instructions.
system.cpu0.commit.function_calls                 142                       # Number of function calls committed.
system.cpu0.commit.op_class_0::No_OpClass            0      0.00%      0.00% # Class of committed instruction
system.cpu0.commit.op_class_0::IntAlu        75234529     40.00%     40.00% # Class of committed instruction
system.cpu0.commit.op_class_0::IntMult              6      0.00%     40.00% # Class of committed instruction
system.cpu0.commit.op_class_0::IntDiv               0      0.00%     40.00% # Class of committed instruction
system.cpu0.commit.op_class_0::FloatAdd             0      0.00%     40.00% # Class of committed instruction
system.cpu0.commit.op_class_0::FloatCmp             0      0.00%     40.00% # Class of committed instruction
system.cpu0.commit.op_class_0::FloatCvt             0      0.00%     40.00% # Class of committed instruction
system.cpu0.commit.op_class_0::FloatMult            0      0.00%     40.00% # Class of committed instruction
system.cpu0.commit.op_class_0::FloatDiv             0      0.00%     40.00% # Class of committed instruction
system.cpu0.commit.op_class_0::FloatSqrt            0      0.00%     40.00% # Class of committed instruction
system.cpu0.commit.op_class_0::SimdAdd              0      0.00%     40.00% # Class of committed instruction
system.cpu0.commit.op_class_0::SimdAddAcc            0      0.00%     40.00% # Class of committed instruction
system.cpu0.commit.op_class_0::SimdAlu              0      0.00%     40.00% # Class of committed instruction
system.cpu0.commit.op_class_0::SimdCmp              0      0.00%     40.00% # Class of committed instruction
system.cpu0.commit.op_class_0::SimdCvt              0      0.00%     40.00% # Class of committed instruction
system.cpu0.commit.op_class_0::SimdMisc             0      0.00%     40.00% # Class of committed instruction
system.cpu0.commit.op_class_0::SimdMult             0      0.00%     40.00% # Class of committed instruction
system.cpu0.commit.op_class_0::SimdMultAcc            0      0.00%     40.00% # Class of committed instruction
system.cpu0.commit.op_class_0::SimdShift            0      0.00%     40.00% # Class of committed instruction
system.cpu0.commit.op_class_0::SimdShiftAcc            0      0.00%     40.00% # Class of committed instruction
system.cpu0.commit.op_class_0::SimdSqrt             0      0.00%     40.00% # Class of committed instruction
system.cpu0.commit.op_class_0::SimdFloatAdd            0      0.00%     40.00% # Class of committed instruction
system.cpu0.commit.op_class_0::SimdFloatAlu            0      0.00%     40.00% # Class of committed instruction
system.cpu0.commit.op_class_0::SimdFloatCmp            0      0.00%     40.00% # Class of committed instruction
system.cpu0.commit.op_class_0::SimdFloatCvt            0      0.00%     40.00% # Class of committed instruction
system.cpu0.commit.op_class_0::SimdFloatDiv            0      0.00%     40.00% # Class of committed instruction
system.cpu0.commit.op_class_0::SimdFloatMisc            3      0.00%     40.00% # Class of committed instruction
system.cpu0.commit.op_class_0::SimdFloatMult            0      0.00%     40.00% # Class of committed instruction
system.cpu0.commit.op_class_0::SimdFloatMultAcc            0      0.00%     40.00% # Class of committed instruction
system.cpu0.commit.op_class_0::SimdFloatSqrt            0      0.00%     40.00% # Class of committed instruction
system.cpu0.commit.op_class_0::MemRead       75228506     40.00%     80.00% # Class of committed instruction
system.cpu0.commit.op_class_0::MemWrite      37616927     20.00%    100.00% # Class of committed instruction
system.cpu0.commit.op_class_0::IprAccess            0      0.00%    100.00% # Class of committed instruction
system.cpu0.commit.op_class_0::InstPrefetch            0      0.00%    100.00% # Class of committed instruction
system.cpu0.commit.op_class_0::total        188079971                       # Class of committed instruction
system.cpu0.commit.bw_lim_events                   79                       # number cycles where commit BW limit reached
system.cpu0.rob.rob_reads                   263331974                       # The number of ROB reads
system.cpu0.rob.rob_writes                  376171620                       # The number of ROB writes
system.cpu0.timesIdled                            250                       # Number of times that the entire CPU went into an idle state and unscheduled itself
system.cpu0.idleCycles                           8322                       # Total number of cycles that the CPU has spent unscheduled due to idling
system.cpu0.committedInsts                  188076667                       # Number of Instructions Simulated
system.cpu0.committedOps                    188079971                       # Number of Ops (including micro ops) Simulated
system.cpu0.cpi                              0.400135                       # CPI: Cycles Per Instruction
system.cpu0.cpi_total                        0.400135                       # CPI: Total CPI of All Threads
system.cpu0.ipc                              2.499154                       # IPC: Instructions Per Cycle
system.cpu0.ipc_total                        2.499154                       # IPC: Total IPC of All Threads
system.cpu0.int_regfile_reads               188084705                       # number of integer regfile reads
system.cpu0.int_regfile_writes               75235159                       # number of integer regfile writes
system.cpu0.fp_regfile_reads                      176                       # number of floating regfile reads
system.cpu0.cc_regfile_reads                789934551                       # number of cc regfile reads
system.cpu0.cc_regfile_writes               112848147                       # number of cc regfile writes
system.cpu0.misc_regfile_reads              112852526                       # number of misc regfile reads
system.cpu0.misc_regfile_writes                    52                       # number of misc regfile writes
system.cpu0.dcache.tags.replacements               26                       # number of replacements
system.cpu0.dcache.tags.tagsinuse          125.374571                       # Cycle average of tags in use
system.cpu0.dcache.tags.total_refs           75229734                       # Total number of references to valid blocks.
system.cpu0.dcache.tags.sampled_refs              169                       # Sample count of references to valid blocks.
system.cpu0.dcache.tags.avg_refs         445146.355030                       # Average number of references to valid blocks.
system.cpu0.dcache.tags.warmup_cycle                0                       # Cycle when the warmup percentage was hit.
system.cpu0.dcache.tags.occ_blocks::cpu0.data   125.374571                       # Average occupied blocks per requestor
system.cpu0.dcache.tags.occ_percent::cpu0.data     0.244872                       # Average percentage of cache occupancy
system.cpu0.dcache.tags.occ_percent::total     0.244872                       # Average percentage of cache occupancy
system.cpu0.dcache.tags.occ_task_id_blocks::1024          143                       # Occupied blocks per task id
system.cpu0.dcache.tags.age_task_id_blocks_1024::0           23                       # Occupied blocks per task id
system.cpu0.dcache.tags.age_task_id_blocks_1024::4          120                       # Occupied blocks per task id
system.cpu0.dcache.tags.occ_task_id_percent::1024     0.279297                       # Percentage of cache occupancy per task id
system.cpu0.dcache.tags.tag_accesses        150465321                       # Number of tag accesses
system.cpu0.dcache.tags.data_accesses       150465321                       # Number of data accesses
system.cpu0.dcache.ReadReq_hits::cpu0.data     37615396                       # number of ReadReq hits
system.cpu0.dcache.ReadReq_hits::total       37615396                       # number of ReadReq hits
system.cpu0.dcache.WriteReq_hits::cpu0.data     37614500                       # number of WriteReq hits
system.cpu0.dcache.WriteReq_hits::total      37614500                       # number of WriteReq hits
system.cpu0.dcache.LoadLockedReq_hits::cpu0.data           22                       # number of LoadLockedReq hits
system.cpu0.dcache.LoadLockedReq_hits::total           22                       # number of LoadLockedReq hits
system.cpu0.dcache.StoreCondReq_hits::cpu0.data           24                       # number of StoreCondReq hits
system.cpu0.dcache.StoreCondReq_hits::total           24                       # number of StoreCondReq hits
system.cpu0.dcache.demand_hits::cpu0.data     75229896                       # number of demand (read+write) hits
system.cpu0.dcache.demand_hits::total        75229896                       # number of demand (read+write) hits
system.cpu0.dcache.overall_hits::cpu0.data     75229896                       # number of overall hits
system.cpu0.dcache.overall_hits::total       75229896                       # number of overall hits
system.cpu0.dcache.ReadReq_misses::cpu0.data          202                       # number of ReadReq misses
system.cpu0.dcache.ReadReq_misses::total          202                       # number of ReadReq misses
system.cpu0.dcache.WriteReq_misses::cpu0.data         2358                       # number of WriteReq misses
system.cpu0.dcache.WriteReq_misses::total         2358                       # number of WriteReq misses
system.cpu0.dcache.LoadLockedReq_misses::cpu0.data            3                       # number of LoadLockedReq misses
system.cpu0.dcache.LoadLockedReq_misses::total            3                       # number of LoadLockedReq misses
system.cpu0.dcache.StoreCondReq_misses::cpu0.data            1                       # number of StoreCondReq misses
system.cpu0.dcache.StoreCondReq_misses::total            1                       # number of StoreCondReq misses
system.cpu0.dcache.demand_misses::cpu0.data         2560                       # number of demand (read+write) misses
system.cpu0.dcache.demand_misses::total          2560                       # number of demand (read+write) misses
system.cpu0.dcache.overall_misses::cpu0.data         2560                       # number of overall misses
system.cpu0.dcache.overall_misses::total         2560                       # number of overall misses
system.cpu0.dcache.ReadReq_miss_latency::cpu0.data      9220990                       # number of ReadReq miss cycles
system.cpu0.dcache.ReadReq_miss_latency::total      9220990                       # number of ReadReq miss cycles
system.cpu0.dcache.WriteReq_miss_latency::cpu0.data    118038000                       # number of WriteReq miss cycles
system.cpu0.dcache.WriteReq_miss_latency::total    118038000                       # number of WriteReq miss cycles
system.cpu0.dcache.LoadLockedReq_miss_latency::cpu0.data       133500                       # number of LoadLockedReq miss cycles
system.cpu0.dcache.LoadLockedReq_miss_latency::total       133500                       # number of LoadLockedReq miss cycles
system.cpu0.dcache.StoreCondReq_miss_latency::cpu0.data         7500                       # number of StoreCondReq miss cycles
system.cpu0.dcache.StoreCondReq_miss_latency::total         7500                       # number of StoreCondReq miss cycles
system.cpu0.dcache.demand_miss_latency::cpu0.data    127258990                       # number of demand (read+write) miss cycles
system.cpu0.dcache.demand_miss_latency::total    127258990                       # number of demand (read+write) miss cycles
system.cpu0.dcache.overall_miss_latency::cpu0.data    127258990                       # number of overall miss cycles
system.cpu0.dcache.overall_miss_latency::total    127258990                       # number of overall miss cycles
system.cpu0.dcache.ReadReq_accesses::cpu0.data     37615598                       # number of ReadReq accesses(hits+misses)
system.cpu0.dcache.ReadReq_accesses::total     37615598                       # number of ReadReq accesses(hits+misses)
system.cpu0.dcache.WriteReq_accesses::cpu0.data     37616858                       # number of WriteReq accesses(hits+misses)
system.cpu0.dcache.WriteReq_accesses::total     37616858                       # number of WriteReq accesses(hits+misses)
system.cpu0.dcache.LoadLockedReq_accesses::cpu0.data           25                       # number of LoadLockedReq accesses(hits+misses)
system.cpu0.dcache.LoadLockedReq_accesses::total           25                       # number of LoadLockedReq accesses(hits+misses)
system.cpu0.dcache.StoreCondReq_accesses::cpu0.data           25                       # number of StoreCondReq accesses(hits+misses)
system.cpu0.dcache.StoreCondReq_accesses::total           25                       # number of StoreCondReq accesses(hits+misses)
system.cpu0.dcache.demand_accesses::cpu0.data     75232456                       # number of demand (read+write) accesses
system.cpu0.dcache.demand_accesses::total     75232456                       # number of demand (read+write) accesses
system.cpu0.dcache.overall_accesses::cpu0.data     75232456                       # number of overall (read+write) accesses
system.cpu0.dcache.overall_accesses::total     75232456                       # number of overall (read+write) accesses
system.cpu0.dcache.ReadReq_miss_rate::cpu0.data     0.000005                       # miss rate for ReadReq accesses
system.cpu0.dcache.ReadReq_miss_rate::total     0.000005                       # miss rate for ReadReq accesses
system.cpu0.dcache.WriteReq_miss_rate::cpu0.data     0.000063                       # miss rate for WriteReq accesses
system.cpu0.dcache.WriteReq_miss_rate::total     0.000063                       # miss rate for WriteReq accesses
system.cpu0.dcache.LoadLockedReq_miss_rate::cpu0.data     0.120000                       # miss rate for LoadLockedReq accesses
system.cpu0.dcache.LoadLockedReq_miss_rate::total     0.120000                       # miss rate for LoadLockedReq accesses
system.cpu0.dcache.StoreCondReq_miss_rate::cpu0.data     0.040000                       # miss rate for StoreCondReq accesses
system.cpu0.dcache.StoreCondReq_miss_rate::total     0.040000                       # miss rate for StoreCondReq accesses
system.cpu0.dcache.demand_miss_rate::cpu0.data     0.000034                       # miss rate for demand accesses
system.cpu0.dcache.demand_miss_rate::total     0.000034                       # miss rate for demand accesses
system.cpu0.dcache.overall_miss_rate::cpu0.data     0.000034                       # miss rate for overall accesses
system.cpu0.dcache.overall_miss_rate::total     0.000034                       # miss rate for overall accesses
system.cpu0.dcache.ReadReq_avg_miss_latency::cpu0.data 45648.465347                       # average ReadReq miss latency
system.cpu0.dcache.ReadReq_avg_miss_latency::total 45648.465347                       # average ReadReq miss latency
system.cpu0.dcache.WriteReq_avg_miss_latency::cpu0.data 50058.524173                       # average WriteReq miss latency
system.cpu0.dcache.WriteReq_avg_miss_latency::total 50058.524173                       # average WriteReq miss latency
system.cpu0.dcache.LoadLockedReq_avg_miss_latency::cpu0.data        44500                       # average LoadLockedReq miss latency
system.cpu0.dcache.LoadLockedReq_avg_miss_latency::total        44500                       # average LoadLockedReq miss latency
system.cpu0.dcache.StoreCondReq_avg_miss_latency::cpu0.data         7500                       # average StoreCondReq miss latency
system.cpu0.dcache.StoreCondReq_avg_miss_latency::total         7500                       # average StoreCondReq miss latency
system.cpu0.dcache.demand_avg_miss_latency::cpu0.data 49710.542969                       # average overall miss latency
system.cpu0.dcache.demand_avg_miss_latency::total 49710.542969                       # average overall miss latency
system.cpu0.dcache.overall_avg_miss_latency::cpu0.data 49710.542969                       # average overall miss latency
system.cpu0.dcache.overall_avg_miss_latency::total 49710.542969                       # average overall miss latency
system.cpu0.dcache.blocked_cycles::no_mshrs            0                       # number of cycles access was blocked
system.cpu0.dcache.blocked_cycles::no_targets            0                       # number of cycles access was blocked
system.cpu0.dcache.blocked::no_mshrs                0                       # number of cycles access was blocked
system.cpu0.dcache.blocked::no_targets              0                       # number of cycles access was blocked
system.cpu0.dcache.avg_blocked_cycles::no_mshrs          nan                       # average number of cycles each access was blocked
system.cpu0.dcache.avg_blocked_cycles::no_targets          nan                       # average number of cycles each access was blocked
system.cpu0.dcache.fast_writes                      0                       # number of fast writes performed
system.cpu0.dcache.cache_copies                     0                       # number of cache copies performed
system.cpu0.dcache.writebacks::writebacks            9                       # number of writebacks
system.cpu0.dcache.writebacks::total                9                       # number of writebacks
system.cpu0.dcache.ReadReq_mshr_hits::cpu0.data           69                       # number of ReadReq MSHR hits
system.cpu0.dcache.ReadReq_mshr_hits::total           69                       # number of ReadReq MSHR hits
system.cpu0.dcache.WriteReq_mshr_hits::cpu0.data         2179                       # number of WriteReq MSHR hits
system.cpu0.dcache.WriteReq_mshr_hits::total         2179                       # number of WriteReq MSHR hits
system.cpu0.dcache.LoadLockedReq_mshr_hits::cpu0.data            3                       # number of LoadLockedReq MSHR hits
system.cpu0.dcache.LoadLockedReq_mshr_hits::total            3                       # number of LoadLockedReq MSHR hits
system.cpu0.dcache.demand_mshr_hits::cpu0.data         2248                       # number of demand (read+write) MSHR hits
system.cpu0.dcache.demand_mshr_hits::total         2248                       # number of demand (read+write) MSHR hits
system.cpu0.dcache.overall_mshr_hits::cpu0.data         2248                       # number of overall MSHR hits
system.cpu0.dcache.overall_mshr_hits::total         2248                       # number of overall MSHR hits
system.cpu0.dcache.ReadReq_mshr_misses::cpu0.data          133                       # number of ReadReq MSHR misses
system.cpu0.dcache.ReadReq_mshr_misses::total          133                       # number of ReadReq MSHR misses
system.cpu0.dcache.WriteReq_mshr_misses::cpu0.data          179                       # number of WriteReq MSHR misses
system.cpu0.dcache.WriteReq_mshr_misses::total          179                       # number of WriteReq MSHR misses
system.cpu0.dcache.StoreCondReq_mshr_misses::cpu0.data            1                       # number of StoreCondReq MSHR misses
system.cpu0.dcache.StoreCondReq_mshr_misses::total            1                       # number of StoreCondReq MSHR misses
system.cpu0.dcache.demand_mshr_misses::cpu0.data          312                       # number of demand (read+write) MSHR misses
system.cpu0.dcache.demand_mshr_misses::total          312                       # number of demand (read+write) MSHR misses
system.cpu0.dcache.overall_mshr_misses::cpu0.data          312                       # number of overall MSHR misses
system.cpu0.dcache.overall_mshr_misses::total          312                       # number of overall MSHR misses
system.cpu0.dcache.ReadReq_mshr_miss_latency::cpu0.data      6032006                       # number of ReadReq MSHR miss cycles
system.cpu0.dcache.ReadReq_mshr_miss_latency::total      6032006                       # number of ReadReq MSHR miss cycles
system.cpu0.dcache.WriteReq_mshr_miss_latency::cpu0.data      9746500                       # number of WriteReq MSHR miss cycles
system.cpu0.dcache.WriteReq_mshr_miss_latency::total      9746500                       # number of WriteReq MSHR miss cycles
system.cpu0.dcache.StoreCondReq_mshr_miss_latency::cpu0.data         4500                       # number of StoreCondReq MSHR miss cycles
system.cpu0.dcache.StoreCondReq_mshr_miss_latency::total         4500                       # number of StoreCondReq MSHR miss cycles
system.cpu0.dcache.demand_mshr_miss_latency::cpu0.data     15778506                       # number of demand (read+write) MSHR miss cycles
system.cpu0.dcache.demand_mshr_miss_latency::total     15778506                       # number of demand (read+write) MSHR miss cycles
system.cpu0.dcache.overall_mshr_miss_latency::cpu0.data     15778506                       # number of overall MSHR miss cycles
system.cpu0.dcache.overall_mshr_miss_latency::total     15778506                       # number of overall MSHR miss cycles
system.cpu0.dcache.ReadReq_mshr_miss_rate::cpu0.data     0.000004                       # mshr miss rate for ReadReq accesses
system.cpu0.dcache.ReadReq_mshr_miss_rate::total     0.000004                       # mshr miss rate for ReadReq accesses
system.cpu0.dcache.WriteReq_mshr_miss_rate::cpu0.data     0.000005                       # mshr miss rate for WriteReq accesses
system.cpu0.dcache.WriteReq_mshr_miss_rate::total     0.000005                       # mshr miss rate for WriteReq accesses
system.cpu0.dcache.StoreCondReq_mshr_miss_rate::cpu0.data     0.040000                       # mshr miss rate for StoreCondReq accesses
system.cpu0.dcache.StoreCondReq_mshr_miss_rate::total     0.040000                       # mshr miss rate for StoreCondReq accesses
system.cpu0.dcache.demand_mshr_miss_rate::cpu0.data     0.000004                       # mshr miss rate for demand accesses
system.cpu0.dcache.demand_mshr_miss_rate::total     0.000004                       # mshr miss rate for demand accesses
system.cpu0.dcache.overall_mshr_miss_rate::cpu0.data     0.000004                       # mshr miss rate for overall accesses
system.cpu0.dcache.overall_mshr_miss_rate::total     0.000004                       # mshr miss rate for overall accesses
system.cpu0.dcache.ReadReq_avg_mshr_miss_latency::cpu0.data 45353.428571                       # average ReadReq mshr miss latency
system.cpu0.dcache.ReadReq_avg_mshr_miss_latency::total 45353.428571                       # average ReadReq mshr miss latency
system.cpu0.dcache.WriteReq_avg_mshr_miss_latency::cpu0.data 54449.720670                       # average WriteReq mshr miss latency
system.cpu0.dcache.WriteReq_avg_mshr_miss_latency::total 54449.720670                       # average WriteReq mshr miss latency
system.cpu0.dcache.StoreCondReq_avg_mshr_miss_latency::cpu0.data         4500                       # average StoreCondReq mshr miss latency
system.cpu0.dcache.StoreCondReq_avg_mshr_miss_latency::total         4500                       # average StoreCondReq mshr miss latency
system.cpu0.dcache.demand_avg_mshr_miss_latency::cpu0.data 50572.134615                       # average overall mshr miss latency
system.cpu0.dcache.demand_avg_mshr_miss_latency::total 50572.134615                       # average overall mshr miss latency
system.cpu0.dcache.overall_avg_mshr_miss_latency::cpu0.data 50572.134615                       # average overall mshr miss latency
system.cpu0.dcache.overall_avg_mshr_miss_latency::total 50572.134615                       # average overall mshr miss latency
system.cpu0.dcache.no_allocate_misses               0                       # Number of misses that were no-allocate
system.cpu0.icache.tags.replacements               64                       # number of replacements
system.cpu0.icache.tags.tagsinuse          286.958511                       # Cycle average of tags in use
system.cpu0.icache.tags.total_refs               1441                       # Total number of references to valid blocks.
system.cpu0.icache.tags.sampled_refs              380                       # Sample count of references to valid blocks.
system.cpu0.icache.tags.avg_refs             3.792105                       # Average number of references to valid blocks.
system.cpu0.icache.tags.warmup_cycle                0                       # Cycle when the warmup percentage was hit.
system.cpu0.icache.tags.occ_blocks::cpu0.inst   286.958511                       # Average occupied blocks per requestor
system.cpu0.icache.tags.occ_percent::cpu0.inst     0.560466                       # Average percentage of cache occupancy
system.cpu0.icache.tags.occ_percent::total     0.560466                       # Average percentage of cache occupancy
system.cpu0.icache.tags.occ_task_id_blocks::1024          316                       # Occupied blocks per task id
system.cpu0.icache.tags.age_task_id_blocks_1024::0           41                       # Occupied blocks per task id
system.cpu0.icache.tags.age_task_id_blocks_1024::4          275                       # Occupied blocks per task id
system.cpu0.icache.tags.occ_task_id_percent::1024     0.617188                       # Percentage of cache occupancy per task id
system.cpu0.icache.tags.tag_accesses             4144                       # Number of tag accesses
system.cpu0.icache.tags.data_accesses            4144                       # Number of data accesses
system.cpu0.icache.ReadReq_hits::cpu0.inst         1441                       # number of ReadReq hits
system.cpu0.icache.ReadReq_hits::total           1441                       # number of ReadReq hits
system.cpu0.icache.demand_hits::cpu0.inst         1441                       # number of demand (read+write) hits
system.cpu0.icache.demand_hits::total            1441                       # number of demand (read+write) hits
system.cpu0.icache.overall_hits::cpu0.inst         1441                       # number of overall hits
system.cpu0.icache.overall_hits::total           1441                       # number of overall hits
system.cpu0.icache.ReadReq_misses::cpu0.inst          441                       # number of ReadReq misses
system.cpu0.icache.ReadReq_misses::total          441                       # number of ReadReq misses
system.cpu0.icache.demand_misses::cpu0.inst          441                       # number of demand (read+write) misses
system.cpu0.icache.demand_misses::total           441                       # number of demand (read+write) misses
system.cpu0.icache.overall_misses::cpu0.inst          441                       # number of overall misses
system.cpu0.icache.overall_misses::total          441                       # number of overall misses
system.cpu0.icache.ReadReq_miss_latency::cpu0.inst     23176498                       # number of ReadReq miss cycles
system.cpu0.icache.ReadReq_miss_latency::total     23176498                       # number of ReadReq miss cycles
system.cpu0.icache.demand_miss_latency::cpu0.inst     23176498                       # number of demand (read+write) miss cycles
system.cpu0.icache.demand_miss_latency::total     23176498                       # number of demand (read+write) miss cycles
system.cpu0.icache.overall_miss_latency::cpu0.inst     23176498                       # number of overall miss cycles
system.cpu0.icache.overall_miss_latency::total     23176498                       # number of overall miss cycles
system.cpu0.icache.ReadReq_accesses::cpu0.inst         1882                       # number of ReadReq accesses(hits+misses)
system.cpu0.icache.ReadReq_accesses::total         1882                       # number of ReadReq accesses(hits+misses)
system.cpu0.icache.demand_accesses::cpu0.inst         1882                       # number of demand (read+write) accesses
system.cpu0.icache.demand_accesses::total         1882                       # number of demand (read+write) accesses
system.cpu0.icache.overall_accesses::cpu0.inst         1882                       # number of overall (read+write) accesses
system.cpu0.icache.overall_accesses::total         1882                       # number of overall (read+write) accesses
system.cpu0.icache.ReadReq_miss_rate::cpu0.inst     0.234325                       # miss rate for ReadReq accesses
system.cpu0.icache.ReadReq_miss_rate::total     0.234325                       # miss rate for ReadReq accesses
system.cpu0.icache.demand_miss_rate::cpu0.inst     0.234325                       # miss rate for demand accesses
system.cpu0.icache.demand_miss_rate::total     0.234325                       # miss rate for demand accesses
system.cpu0.icache.overall_miss_rate::cpu0.inst     0.234325                       # miss rate for overall accesses
system.cpu0.icache.overall_miss_rate::total     0.234325                       # miss rate for overall accesses
system.cpu0.icache.ReadReq_avg_miss_latency::cpu0.inst 52554.417234                       # average ReadReq miss latency
system.cpu0.icache.ReadReq_avg_miss_latency::total 52554.417234                       # average ReadReq miss latency
system.cpu0.icache.demand_avg_miss_latency::cpu0.inst 52554.417234                       # average overall miss latency
system.cpu0.icache.demand_avg_miss_latency::total 52554.417234                       # average overall miss latency
system.cpu0.icache.overall_avg_miss_latency::cpu0.inst 52554.417234                       # average overall miss latency
system.cpu0.icache.overall_avg_miss_latency::total 52554.417234                       # average overall miss latency
system.cpu0.icache.blocked_cycles::no_mshrs           11                       # number of cycles access was blocked
system.cpu0.icache.blocked_cycles::no_targets            0                       # number of cycles access was blocked
system.cpu0.icache.blocked::no_mshrs                1                       # number of cycles access was blocked
system.cpu0.icache.blocked::no_targets              0                       # number of cycles access was blocked
system.cpu0.icache.avg_blocked_cycles::no_mshrs           11                       # average number of cycles each access was blocked
system.cpu0.icache.avg_blocked_cycles::no_targets          nan                       # average number of cycles each access was blocked
system.cpu0.icache.fast_writes                      0                       # number of fast writes performed
system.cpu0.icache.cache_copies                     0                       # number of cache copies performed
system.cpu0.icache.ReadReq_mshr_hits::cpu0.inst           61                       # number of ReadReq MSHR hits
system.cpu0.icache.ReadReq_mshr_hits::total           61                       # number of ReadReq MSHR hits
system.cpu0.icache.demand_mshr_hits::cpu0.inst           61                       # number of demand (read+write) MSHR hits
system.cpu0.icache.demand_mshr_hits::total           61                       # number of demand (read+write) MSHR hits
system.cpu0.icache.overall_mshr_hits::cpu0.inst           61                       # number of overall MSHR hits
system.cpu0.icache.overall_mshr_hits::total           61                       # number of overall MSHR hits
system.cpu0.icache.ReadReq_mshr_misses::cpu0.inst          380                       # number of ReadReq MSHR misses
system.cpu0.icache.ReadReq_mshr_misses::total          380                       # number of ReadReq MSHR misses
system.cpu0.icache.demand_mshr_misses::cpu0.inst          380                       # number of demand (read+write) MSHR misses
system.cpu0.icache.demand_mshr_misses::total          380                       # number of demand (read+write) MSHR misses
system.cpu0.icache.overall_mshr_misses::cpu0.inst          380                       # number of overall MSHR misses
system.cpu0.icache.overall_mshr_misses::total          380                       # number of overall MSHR misses
system.cpu0.icache.ReadReq_mshr_miss_latency::cpu0.inst     19953502                       # number of ReadReq MSHR miss cycles
system.cpu0.icache.ReadReq_mshr_miss_latency::total     19953502                       # number of ReadReq MSHR miss cycles
system.cpu0.icache.demand_mshr_miss_latency::cpu0.inst     19953502                       # number of demand (read+write) MSHR miss cycles
system.cpu0.icache.demand_mshr_miss_latency::total     19953502                       # number of demand (read+write) MSHR miss cycles
system.cpu0.icache.overall_mshr_miss_latency::cpu0.inst     19953502                       # number of overall MSHR miss cycles
system.cpu0.icache.overall_mshr_miss_latency::total     19953502                       # number of overall MSHR miss cycles
system.cpu0.icache.ReadReq_mshr_miss_rate::cpu0.inst     0.201913                       # mshr miss rate for ReadReq accesses
[...]
system.l2.ReadReq_avg_miss_latency::cpu1.inst 53100.378788                       # average ReadReq miss latency
system.l2.ReadReq_avg_miss_latency::cpu1.data 53193.333333                       # average ReadReq miss latency
system.l2.ReadReq_avg_miss_latency::total 53361.910242                       # average ReadReq miss latency
system.l2.ReadExReq_avg_miss_latency::cpu0.data 53252.840909                       # average ReadExReq miss latency
system.l2.ReadExReq_avg_miss_latency::cpu1.data 53001.078361                       # average ReadExReq miss latency
system.l2.ReadExReq_avg_miss_latency::total 53016.058147                       # average ReadExReq miss latency
system.l2.demand_avg_miss_latency::cpu0.inst 53427.966102                       # average overall miss latency
system.l2.demand_avg_miss_latency::cpu0.data 53548.736462                       # average overall miss latency
system.l2.demand_avg_miss_latency::cpu1.inst 53100.378788                       # average overall miss latency
system.l2.demand_avg_miss_latency::cpu1.data 53010.914052                       # average overall miss latency
system.l2.demand_avg_miss_latency::total 53094.591063                       # average overall miss latency
system.l2.overall_avg_miss_latency::cpu0.inst 53427.966102                       # average overall miss latency
system.l2.overall_avg_miss_latency::cpu0.data 53548.736462                       # average overall miss latency
system.l2.overall_avg_miss_latency::cpu1.inst 53100.378788                       # average overall miss latency
system.l2.overall_avg_miss_latency::cpu1.data 53010.914052                       # average overall miss latency
system.l2.overall_avg_miss_latency::total 53094.591063                       # average overall miss latency
system.l2.blocked_cycles::no_mshrs                  0                       # number of cycles access was blocked
system.l2.blocked_cycles::no_targets                0                       # number of cycles access was blocked
system.l2.blocked::no_mshrs                         0                       # number of cycles access was blocked
system.l2.blocked::no_targets                       0                       # number of cycles access was blocked
system.l2.avg_blocked_cycles::no_mshrs            nan                       # average number of cycles each access was blocked
system.l2.avg_blocked_cycles::no_targets          nan                       # average number of cycles each access was blocked
system.l2.fast_writes                               0                       # number of fast writes performed
system.l2.cache_copies                              0                       # number of cache copies performed
system.l2.ReadReq_mshr_hits::cpu0.inst              2                       # number of ReadReq MSHR hits
system.l2.ReadReq_mshr_hits::cpu0.data              6                       # number of ReadReq MSHR hits
system.l2.ReadReq_mshr_hits::total                  8                       # number of ReadReq MSHR hits
system.l2.demand_mshr_hits::cpu0.inst               2                       # number of demand (read+write) MSHR hits
system.l2.demand_mshr_hits::cpu0.data               6                       # number of demand (read+write) MSHR hits
system.l2.demand_mshr_hits::total                   8                       # number of demand (read+write) MSHR hits
system.l2.overall_mshr_hits::cpu0.inst              2                       # number of overall MSHR hits
system.l2.overall_mshr_hits::cpu0.data              6                       # number of overall MSHR hits
system.l2.overall_mshr_hits::total                  8                       # number of overall MSHR hits
system.l2.ReadReq_mshr_misses::cpu0.inst          352                       # number of ReadReq MSHR misses
system.l2.ReadReq_mshr_misses::cpu0.data           95                       # number of ReadReq MSHR misses
system.l2.ReadReq_mshr_misses::cpu1.inst          264                       # number of ReadReq MSHR misses
system.l2.ReadReq_mshr_misses::cpu1.data          150                       # number of ReadReq MSHR misses
system.l2.ReadReq_mshr_misses::total              861                       # number of ReadReq MSHR misses
system.l2.ReadExReq_mshr_misses::cpu0.data          176                       # number of ReadExReq MSHR misses
system.l2.ReadExReq_mshr_misses::cpu1.data         2782                       # number of ReadExReq MSHR misses
system.l2.ReadExReq_mshr_misses::total           2958                       # number of ReadExReq MSHR misses
system.l2.demand_mshr_misses::cpu0.inst           352                       # number of demand (read+write) MSHR misses
system.l2.demand_mshr_misses::cpu0.data           271                       # number of demand (read+write) MSHR misses
system.l2.demand_mshr_misses::cpu1.inst           264                       # number of demand (read+write) MSHR misses
system.l2.demand_mshr_misses::cpu1.data          2932                       # number of demand (read+write) MSHR misses
system.l2.demand_mshr_misses::total              3819                       # number of demand (read+write) MSHR misses
system.l2.overall_mshr_misses::cpu0.inst          352                       # number of overall MSHR misses
system.l2.overall_mshr_misses::cpu0.data          271                       # number of overall MSHR misses
system.l2.overall_mshr_misses::cpu1.inst          264                       # number of overall MSHR misses
system.l2.overall_mshr_misses::cpu1.data         2932                       # number of overall MSHR misses
system.l2.overall_mshr_misses::total             3819                       # number of overall MSHR misses
system.l2.ReadReq_mshr_miss_latency::cpu0.inst     14440500                       # number of ReadReq MSHR miss cycles
system.l2.ReadReq_mshr_miss_latency::cpu0.data      4013000                       # number of ReadReq MSHR miss cycles
system.l2.ReadReq_mshr_miss_latency::cpu1.inst     10729000                       # number of ReadReq MSHR miss cycles
system.l2.ReadReq_mshr_miss_latency::cpu1.data      6109500                       # number of ReadReq MSHR miss cycles
system.l2.ReadReq_mshr_miss_latency::total     35292000                       # number of ReadReq MSHR miss cycles
system.l2.ReadExReq_mshr_miss_latency::cpu0.data      7179500                       # number of ReadExReq MSHR miss cycles
system.l2.ReadExReq_mshr_miss_latency::cpu1.data    112675500                       # number of ReadExReq MSHR miss cycles
system.l2.ReadExReq_mshr_miss_latency::total    119855000                       # number of ReadExReq MSHR miss cycles
system.l2.demand_mshr_miss_latency::cpu0.inst     14440500                       # number of demand (read+write) MSHR miss cycles
system.l2.demand_mshr_miss_latency::cpu0.data     11192500                       # number of demand (read+write) MSHR miss cycles
system.l2.demand_mshr_miss_latency::cpu1.inst     10729000                       # number of demand (read+write) MSHR miss cycles
system.l2.demand_mshr_miss_latency::cpu1.data    118785000                       # number of demand (read+write) MSHR miss cycles
system.l2.demand_mshr_miss_latency::total    155147000                       # number of demand (read+write) MSHR miss cycles
system.l2.overall_mshr_miss_latency::cpu0.inst     14440500                       # number of overall MSHR miss cycles
system.l2.overall_mshr_miss_latency::cpu0.data     11192500                       # number of overall MSHR miss cycles
system.l2.overall_mshr_miss_latency::cpu1.inst     10729000                       # number of overall MSHR miss cycles
system.l2.overall_mshr_miss_latency::cpu1.data    118785000                       # number of overall MSHR miss cycles
system.l2.overall_mshr_miss_latency::total    155147000                       # number of overall MSHR miss cycles
system.l2.ReadReq_mshr_miss_rate::cpu0.inst     0.926316                       # mshr miss rate for ReadReq accesses
system.l2.ReadReq_mshr_miss_rate::cpu0.data     0.736434                       # mshr miss rate for ReadReq accesses
system.l2.ReadReq_mshr_miss_rate::cpu1.inst     0.536585                       # mshr miss rate for ReadReq accesses
system.l2.ReadReq_mshr_miss_rate::cpu1.data     0.000365                       # mshr miss rate for ReadReq accesses
system.l2.ReadReq_mshr_miss_rate::total      0.002089                       # mshr miss rate for ReadReq accesses
system.l2.ReadExReq_mshr_miss_rate::cpu0.data            1                       # mshr miss rate for ReadExReq accesses
system.l2.ReadExReq_mshr_miss_rate::cpu1.data     0.997133                       # mshr miss rate for ReadExReq accesses
system.l2.ReadExReq_mshr_miss_rate::total     0.997303                       # mshr miss rate for ReadExReq accesses
system.l2.demand_mshr_miss_rate::cpu0.inst     0.926316                       # mshr miss rate for demand accesses
system.l2.demand_mshr_miss_rate::cpu0.data     0.888525                       # mshr miss rate for demand accesses
system.l2.demand_mshr_miss_rate::cpu1.inst     0.536585                       # mshr miss rate for demand accesses
system.l2.demand_mshr_miss_rate::cpu1.data     0.007084                       # mshr miss rate for demand accesses
system.l2.demand_mshr_miss_rate::total       0.009201                       # mshr miss rate for demand accesses
system.l2.overall_mshr_miss_rate::cpu0.inst     0.926316                       # mshr miss rate for overall accesses
system.l2.overall_mshr_miss_rate::cpu0.data     0.888525                       # mshr miss rate for overall accesses
system.l2.overall_mshr_miss_rate::cpu1.inst     0.536585                       # mshr miss rate for overall accesses
system.l2.overall_mshr_miss_rate::cpu1.data     0.007084                       # mshr miss rate for overall accesses
system.l2.overall_mshr_miss_rate::total      0.009201                       # mshr miss rate for overall accesses
system.l2.ReadReq_avg_mshr_miss_latency::cpu0.inst 41024.147727                       # average ReadReq mshr miss latency
system.l2.ReadReq_avg_mshr_miss_latency::cpu0.data 42242.105263                       # average ReadReq mshr miss latency
system.l2.ReadReq_avg_mshr_miss_latency::cpu1.inst 40640.151515                       # average ReadReq mshr miss latency
system.l2.ReadReq_avg_mshr_miss_latency::cpu1.data        40730                       # average ReadReq mshr miss latency
system.l2.ReadReq_avg_mshr_miss_latency::total 40989.547038                       # average ReadReq mshr miss latency
system.l2.ReadExReq_avg_mshr_miss_latency::cpu0.data 40792.613636                       # average ReadExReq mshr miss latency
system.l2.ReadExReq_avg_mshr_miss_latency::cpu1.data 40501.617541                       # average ReadExReq mshr miss latency
system.l2.ReadExReq_avg_mshr_miss_latency::total 40518.931711                       # average ReadExReq mshr miss latency
system.l2.demand_avg_mshr_miss_latency::cpu0.inst 41024.147727                       # average overall mshr miss latency
system.l2.demand_avg_mshr_miss_latency::cpu0.data 41300.738007                       # average overall mshr miss latency
system.l2.demand_avg_mshr_miss_latency::cpu1.inst 40640.151515                       # average overall mshr miss latency
system.l2.demand_avg_mshr_miss_latency::cpu1.data 40513.301501                       # average overall mshr miss latency
system.l2.demand_avg_mshr_miss_latency::total 40625.032731                       # average overall mshr miss latency
system.l2.overall_avg_mshr_miss_latency::cpu0.inst 41024.147727                       # average overall mshr miss latency
system.l2.overall_avg_mshr_miss_latency::cpu0.data 41300.738007                       # average overall mshr miss latency
system.l2.overall_avg_mshr_miss_latency::cpu1.inst 40640.151515                       # average overall mshr miss latency
system.l2.overall_avg_mshr_miss_latency::cpu1.data 40513.301501                       # average overall mshr miss latency
system.l2.overall_avg_mshr_miss_latency::total 40625.032731                       # average overall mshr miss latency
system.l2.no_allocate_misses                        0                       # Number of misses that were no-allocate
system.membus.trans_dist::ReadReq                 861                       # Transaction distribution
system.membus.trans_dist::ReadResp                861                       # Transaction distribution
system.membus.trans_dist::UpgradeReq              136                       # Transaction distribution
system.membus.trans_dist::SCUpgradeReq              4                       # Transaction distribution
system.membus.trans_dist::ReadExReq              2959                       # Transaction distribution
system.membus.trans_dist::ReadExResp             2958                       # Transaction distribution
system.membus.pkt_count_system.l2.mem_side::system.physmem.port         7779                       # Packet count per connected master and slave (bytes)
system.membus.pkt_count::total                   7779                       # Packet count per connected master and slave (bytes)
system.membus.pkt_size_system.l2.mem_side::system.physmem.port       244416                       # Cumulative packet size per connected master and slave (bytes)
system.membus.pkt_size::total                  244416                       # Cumulative packet size per connected master and slave (bytes)
system.membus.snoops                              141                       # Total snoops (count)
system.membus.snoop_fanout::samples              4082                       # Request fanout histogram
system.membus.snoop_fanout::mean                    0                       # Request fanout histogram
system.membus.snoop_fanout::stdev                   0                       # Request fanout histogram
system.membus.snoop_fanout::underflows              0      0.00%      0.00% # Request fanout histogram
system.membus.snoop_fanout::0                    4082    100.00%    100.00% # Request fanout histogram
system.membus.snoop_fanout::1                       0      0.00%    100.00% # Request fanout histogram
system.membus.snoop_fanout::overflows               0      0.00%    100.00% # Request fanout histogram
system.membus.snoop_fanout::min_value               0                       # Request fanout histogram
system.membus.snoop_fanout::max_value               0                       # Request fanout histogram
system.membus.snoop_fanout::total                4082                       # Request fanout histogram
system.membus.reqLayer0.occupancy             5888204                       # Layer occupancy (ticks)
system.membus.reqLayer0.utilization               0.0                       # Layer utilization (%)
system.membus.respLayer1.occupancy           20932000                       # Layer occupancy (ticks)
system.membus.respLayer1.utilization              0.0                       # Layer utilization (%)
system.tol2bus.trans_dist::ReadReq             412253                       # Transaction distribution
system.tol2bus.trans_dist::ReadResp            412253                       # Transaction distribution
system.tol2bus.trans_dist::Writeback           412717                       # Transaction distribution
system.tol2bus.trans_dist::UpgradeReq             138                       # Transaction distribution
system.tol2bus.trans_dist::SCUpgradeReq             4                       # Transaction distribution
system.tol2bus.trans_dist::UpgradeResp            142                       # Transaction distribution
system.tol2bus.trans_dist::ReadExReq             2968                       # Transaction distribution
system.tol2bus.trans_dist::ReadExResp            2968                       # Transaction distribution
system.tol2bus.pkt_count_system.cpu0.icache.mem_side::system.l2.cpu_side          760                       # Packet count per connected master and slave (bytes)
system.tol2bus.pkt_count_system.cpu0.dcache.mem_side::system.l2.cpu_side          628                       # Packet count per connected master and slave (bytes)
system.tol2bus.pkt_count_system.cpu1.icache.mem_side::system.l2.cpu_side          984                       # Packet count per connected master and slave (bytes)
system.tol2bus.pkt_count_system.cpu1.dcache.mem_side::system.l2.cpu_side      1240773                       # Packet count per connected master and slave (bytes)
system.tol2bus.pkt_count::total               1243145                       # Packet count per connected master and slave (bytes)
system.tol2bus.pkt_size_system.cpu0.icache.mem_side::system.l2.cpu_side        24320                       # Cumulative packet size per connected master and slave (bytes)
system.tol2bus.pkt_size_system.cpu0.dcache.mem_side::system.l2.cpu_side        20096                       # Cumulative packet size per connected master and slave (bytes)
system.tol2bus.pkt_size_system.cpu1.icache.mem_side::system.l2.cpu_side        31488                       # Cumulative packet size per connected master and slave (bytes)
system.tol2bus.pkt_size_system.cpu1.dcache.mem_side::system.l2.cpu_side     52902016                       # Cumulative packet size per connected master and slave (bytes)
system.tol2bus.pkt_size::total               52977920                       # Cumulative packet size per connected master and slave (bytes)
system.tol2bus.snoops                             298                       # Total snoops (count)
system.tol2bus.snoop_fanout::samples           828080                       # Request fanout histogram
system.tol2bus.snoop_fanout::mean                   3                       # Request fanout histogram
system.tol2bus.snoop_fanout::stdev                  0                       # Request fanout histogram
system.tol2bus.snoop_fanout::underflows             0      0.00%      0.00% # Request fanout histogram
system.tol2bus.snoop_fanout::0                      0      0.00%      0.00% # Request fanout histogram
system.tol2bus.snoop_fanout::1                      0      0.00%      0.00% # Request fanout histogram
system.tol2bus.snoop_fanout::2                      0      0.00%      0.00% # Request fanout histogram
system.tol2bus.snoop_fanout::3                 828080    100.00%    100.00% # Request fanout histogram
system.tol2bus.snoop_fanout::4                      0      0.00%    100.00% # Request fanout histogram
system.tol2bus.snoop_fanout::overflows              0      0.00%    100.00% # Request fanout histogram
system.tol2bus.snoop_fanout::min_value              3                       # Request fanout histogram
system.tol2bus.snoop_fanout::max_value              3                       # Request fanout histogram
system.tol2bus.snoop_fanout::total             828080                       # Request fanout histogram
system.tol2bus.reqLayer0.occupancy          826757000                       # Layer occupancy (ticks)
system.tol2bus.reqLayer0.utilization              1.1                       # Layer utilization (%)
system.tol2bus.respLayer0.occupancy            570998                       # Layer occupancy (ticks)
system.tol2bus.respLayer0.utilization             0.0                       # Layer utilization (%)
system.tol2bus.respLayer1.occupancy            468494                       # Layer occupancy (ticks)
system.tol2bus.respLayer1.utilization             0.0                       # Layer utilization (%)
system.tol2bus.respLayer4.occupancy            738000                       # Layer occupancy (ticks)
system.tol2bus.respLayer4.utilization             0.0                       # Layer utilization (%)
system.tol2bus.respLayer5.occupancy         621129000                       # Layer occupancy (ticks)
system.tol2bus.respLayer5.utilization             0.8                       # Layer utilization (%)

---------- End Simulation Statistics   ----------
