
---------- Begin Simulation Statistics ----------
sim_seconds                                  0.072993                       # Number of seconds simulated
sim_ticks                                 72993037000                       # Number of ticks simulated
final_tick                                72993037000                       # Number of ticks from beginning of simulation (restored from checkpoints and never reset)
sim_freq                                 1000000000000                       # Frequency of simulated ticks
host_inst_rate                                 177192                       # Simulator instruction rate (inst/s)
host_op_rate                                   183821                       # Simulator op (including micro ops) rate (op/s)
host_tick_rate                               49330670                       # Simulator tick rate (ticks/s)
host_mem_usage                                 685052                       # Number of bytes of host memory used
host_seconds                                  1479.67                       # Real time elapsed on the host
sim_insts                                   262185270                       # Number of instructions simulated
sim_ops                                     271993799                       # Number of ops (including micro ops) simulated
system.voltage_domain.voltage                       1                       # Voltage in Volts
system.clk_domain.clock                          1000                       # Clock period in ticks
system.physmem.bytes_read::cpu0.inst            22144                       # Number of bytes read from this memory
system.physmem.bytes_read::cpu0.data            17664                       # Number of bytes read from this memory
system.physmem.bytes_read::cpu1.inst             9920                       # Number of bytes read from this memory
system.physmem.bytes_read::cpu1.data            99072                       # Number of bytes read from this memory
system.physmem.bytes_read::cpu2.inst             9728                       # Number of bytes read from this memory
system.physmem.bytes_read::cpu2.data            99264                       # Number of bytes read from this memory
system.physmem.bytes_read::total               257792                       # Number of bytes read from this memory
system.physmem.bytes_inst_read::cpu0.inst        22144                       # Number of instructions bytes read from this memory
system.physmem.bytes_inst_read::cpu1.inst         9920                       # Number of instructions bytes read from this memory
system.physmem.bytes_inst_read::cpu2.inst         9728                       # Number of instructions bytes read from this memory
system.physmem.bytes_inst_read::total           41792                       # Number of instructions bytes read from this memory
system.physmem.num_reads::cpu0.inst               346                       # Number of read requests responded to by this memory
system.physmem.num_reads::cpu0.data               276                       # Number of read requests responded to by this memory
system.physmem.num_reads::cpu1.inst               155                       # Number of read requests responded to by this memory
system.physmem.num_reads::cpu1.data              1548                       # Number of read requests responded to by this memory
system.physmem.num_reads::cpu2.inst               152                       # Number of read requests responded to by this memory
system.physmem.num_reads::cpu2.data              1551                       # Number of read requests responded to by this memory
system.physmem.num_reads::total                  4028                       # Number of read requests responded to by this memory
system.physmem.bw_read::cpu0.inst              303371                       # Total read bandwidth from this memory (bytes/s)
system.physmem.bw_read::cpu0.data              241996                       # Total read bandwidth from this memory (bytes/s)
system.physmem.bw_read::cpu1.inst              135903                       # Total read bandwidth from this memory (bytes/s)
system.physmem.bw_read::cpu1.data             1357280                       # Total read bandwidth from this memory (bytes/s)
system.physmem.bw_read::cpu2.inst              133273                       # Total read bandwidth from this memory (bytes/s)
system.physmem.bw_read::cpu2.data             1359911                       # Total read bandwidth from this memory (bytes/s)
system.physmem.bw_read::total                 3531734                       # Total read bandwidth from this memory (bytes/s)
system.physmem.bw_inst_read::cpu0.inst         303371                       # Instruction read bandwidth from this memory (bytes/s)
system.physmem.bw_inst_read::cpu1.inst         135903                       # Instruction read bandwidth from this memory (bytes/s)
system.physmem.bw_inst_read::cpu2.inst         133273                       # Instruction read bandwidth from this memory (bytes/s)
system.physmem.bw_inst_read::total             572548                       # Instruction read bandwidth from this memory (bytes/s)
system.physmem.bw_total::cpu0.inst             303371                       # Total bandwidth to/from this memory (bytes/s)
system.physmem.bw_total::cpu0.data             241996                       # Total bandwidth to/from this memory (bytes/s)
system.physmem.bw_total::cpu1.inst             135903                       # Total bandwidth to/from this memory (bytes/s)
system.physmem.bw_total::cpu1.data            1357280                       # Total bandwidth to/from this memory (bytes/s)
system.physmem.bw_total::cpu2.inst             133273                       # Total bandwidth to/from this memory (bytes/s)
system.physmem.bw_total::cpu2.data            1359911                       # Total bandwidth to/from this memory (bytes/s)
system.physmem.bw_total::total                3531734                       # Total bandwidth to/from this memory (bytes/s)
system.cpu0.branchPred.lookups               36485570                       # Number of BP lookups
system.cpu0.branchPred.condPredicted         36484692                       # Number of conditional branches predicted
system.cpu0.branchPred.condIncorrect              578                       # Number of conditional branches incorrect
system.cpu0.branchPred.BTBLookups            36483979                       # Number of BTB lookups
system.cpu0.branchPred.BTBHits               36483587                       # Number of BTB hits
system.cpu0.branchPred.BTBCorrect                   0                       # Number of correct BTB predictions (this stat may not work properly.
system.cpu0.branchPred.BTBHitPct            99.998926                       # BTB Hit Percentage
system.cpu0.branchPred.usedRAS                    271                       # Number of times the RAS was used to get a target.
system.cpu0.branchPred.RASInCorrect                55                       # Number of incorrect RAS predictions.
system.cpu0.dstage2_mmu.stage2_tlb.walker.walks            0                       # Table walker walks requested
system.cpu0.dstage2_mmu.stage2_tlb.walker.walkRequestOrigin_Requested::Data            0                       # Table walker requests started/completed, data/inst
system.cpu0.dstage2_mmu.stage2_tlb.walker.walkRequestOrigin_Requested::Inst            0                       # Table walker requests started/completed, data/inst
system.cpu0.dstage2_mmu.stage2_tlb.walker.walkRequestOrigin_Requested::total            0                       # Table walker requests started/completed, data/inst
system.cpu0.dstage2_mmu.stage2_tlb.walker.walkRequestOrigin_Completed::Data            0                       # Table walker requests started/completed, data/inst
system.cpu0.dstage2_mmu.stage2_tlb.walker.walkRequestOrigin_Completed::Inst            0                       # Table walker requests started/completed, data/inst
system.cpu0.dstage2_mmu.stage2_tlb.walker.walkRequestOrigin_Completed::total            0                       # Table walker requests started/completed, data/inst
system.cpu0.dstage2_mmu.stage2_tlb.walker.walkRequestOrigin::total            0                       # Table walker requests started/completed, data/inst
system.cpu0.dstage2_mmu.stage2_tlb.inst_hits            0                       # ITB inst hits
system.cpu0.dstage2_mmu.stage2_tlb.inst_misses            0                       # ITB inst misses
system.cpu0.dstage2_mmu.stage2_tlb.read_hits            0                       # DTB read hits
system.cpu0.dstage2_mmu.stage2_tlb.read_misses            0                       # DTB read misses
system.cpu0.dstage2_mmu.stage2_tlb.write_hits            0                       # DTB write hits
system.cpu0.dstage2_mmu.stage2_tlb.write_misses            0                       # DTB write misses
system.cpu0.dstage2_mmu.stage2_tlb.flush_tlb            0                       # Number of times complete TLB was flushed
system.cpu0.dstage2_mmu.stage2_tlb.flush_tlb_mva            0                       # Number of times TLB was flushed by MVA
system.cpu0.dstage2_mmu.stage2_tlb.flush_tlb_mva_asid            0                       # Number of times TLB was flushed by MVA & ASID
system.cpu0.dstage2_mmu.stage2_tlb.flush_tlb_asid            0                       # Number of times TLB was flushed by ASID
system.cpu0.dstage2_mmu.stage2_tlb.flush_entries            0                       # Number of entries that have been flushed from TLB
system.cpu0.dstage2_mmu.stage2_tlb.align_faults            0                       # Number of TLB faults due to alignment restrictions
system.cpu0.dstage2_mmu.stage2_tlb.prefetch_faults            0                       # Number of TLB faults due to prefetch
system.cpu0.dstage2_mmu.stage2_tlb.domain_faults            0                       # Number of TLB faults due to domain restrictions
system.cpu0.dstage2_mmu.stage2_tlb.perms_faults            0                       # Number of TLB faults due to permissions restrictions
system.cpu0.dstage2_mmu.stage2_tlb.read_accesses            0                       # DTB read accesses
system.cpu0.dstage2_mmu.stage2_tlb.write_accesses            0                       # DTB write accesses
system.cpu0.dstage2_mmu.stage2_tlb.inst_accesses            0                       # ITB inst accesses
system.cpu0.dstage2_mmu.stage2_tlb.hits             0                       # DTB hits
system.cpu0.dstage2_mmu.stage2_tlb.misses            0                       # DTB misses
system.cpu0.dstage2_mmu.stage2_tlb.accesses            0                       # DTB accesses
system.cpu0.dtb.walker.walks                        0                       # Table walker walks requested
system.cpu0.dtb.walker.walkRequestOrigin_Requested::Data            0                       # Table walker requests started/completed, data/inst
system.cpu0.dtb.walker.walkRequestOrigin_Requested::Inst            0                       # Table walker requests started/completed, data/inst
system.cpu0.dtb.walker.walkRequestOrigin_Requested::total            0                       # Table walker requests started/completed, data/inst
system.cpu0.dtb.walker.walkRequestOrigin_Completed::Data            0                       # Table walker requests started/completed, data/inst
system.cpu0.dtb.walker.walkRequestOrigin_Completed::Inst            0                       # Table walker requests started/completed, data/inst
system.cpu0.dtb.walker.walkRequestOrigin_Completed::total            0                       # Table walker requests started/completed, data/inst
system.cpu0.dtb.walker.walkRequestOrigin::total            0                       # Table walker requests started/completed, data/inst
system.cpu0.dtb.inst_hits                           0                       # ITB inst hits
system.cpu0.dtb.inst_misses                         0                       # ITB inst misses
system.cpu0.dtb.read_hits                           0                       # DTB read hits
system.cpu0.dtb.read_misses                         0                       # DTB read misses
system.cpu0.dtb.write_hits                          0                       # DTB write hits
system.cpu0.dtb.write_misses                        0                       # DTB write misses
system.cpu0.dtb.flush_tlb                           0                       # Number of times complete TLB was flushed
system.cpu0.dtb.flush_tlb_mva                       0                       # Number of times TLB was flushed by MVA
system.cpu0.dtb.flush_tlb_mva_asid                  0                       # Number of times TLB was flushed by MVA & ASID
system.cpu0.dtb.flush_tlb_asid                      0                       # Number of times TLB was flushed by ASID
system.cpu0.dtb.flush_entries                       0                       # Number of entries that have been flushed from TLB
system.cpu0.dtb.align_faults                        0                       # Number of TLB faults due to alignment restrictions
system.cpu0.dtb.prefetch_faults                     0                       # Number of TLB faults due to prefetch
system.cpu0.dtb.domain_faults                       0                       # Number of TLB faults due to domain restrictions
system.cpu0.dtb.perms_faults                        0                       # Number of TLB faults due to permissions restrictions
system.cpu0.dtb.read_accesses                       0                       # DTB read accesses
system.cpu0.dtb.write_accesses                      0                       # DTB write accesses
system.cpu0.dtb.inst_accesses                       0                       # ITB inst accesses
system.cpu0.dtb.hits                                0                       # DTB hits
system.cpu0.dtb.misses                              0                       # DTB misses
system.cpu0.dtb.accesses                            0                       # DTB accesses
system.cpu0.istage2_mmu.stage2_tlb.walker.walks            0                       # Table walker walks requested
system.cpu0.istage2_mmu.stage2_tlb.walker.walkRequestOrigin_Requested::Data            0                       # Table walker requests started/completed, data/inst
system.cpu0.istage2_mmu.stage2_tlb.walker.walkRequestOrigin_Requested::Inst            0                       # Table walker requests started/completed, data/inst
system.cpu0.istage2_mmu.stage2_tlb.walker.walkRequestOrigin_Requested::total            0                       # Table walker requests started/completed, data/inst
system.cpu0.istage2_mmu.stage2_tlb.walker.walkRequestOrigin_Completed::Data            0                       # Table walker requests started/completed, data/inst
system.cpu0.istage2_mmu.stage2_tlb.walker.walkRequestOrigin_Completed::Inst            0                       # Table walker requests started/completed, data/inst
system.cpu0.istage2_mmu.stage2_tlb.walker.walkRequestOrigin_Completed::total            0                       # Table walker requests started/completed, data/inst
system.cpu0.istage2_mmu.stage2_tlb.walker.walkRequestOrigin::total            0                       # Table walker requests started/completed, data/inst
system.cpu0.istage2_mmu.stage2_tlb.inst_hits            0                       # ITB inst hits
system.cpu0.istage2_mmu.stage2_tlb.inst_misses            0                       # ITB inst misses
system.cpu0.istage2_mmu.stage2_tlb.read_hits            0                       # DTB read hits
system.cpu0.istage2_mmu.stage2_tlb.read_misses            0                       # DTB read misses
system.cpu0.istage2_mmu.stage2_tlb.write_hits            0                       # DTB write hits
system.cpu0.istage2_mmu.stage2_tlb.write_misses            0                       # DTB write misses
system.cpu0.istage2_mmu.stage2_tlb.flush_tlb            0                       # Number of times complete TLB was flushed
system.cpu0.istage2_mmu.stage2_tlb.flush_tlb_mva            0                       # Number of times TLB was flushed by MVA
system.cpu0.istage2_mmu.stage2_tlb.flush_tlb_mva_asid            0                       # Number of times TLB was flushed by MVA & ASID
system.cpu0.istage2_mmu.stage2_tlb.flush_tlb_asid            0                       # Number of times TLB was flushed by ASID
system.cpu0.istage2_mmu.stage2_tlb.flush_entries            0                       # Number of entries that have been flushed from TLB
system.cpu0.istage2_mmu.stage2_tlb.align_faults            0                       # Number of TLB faults due to alignment restrictions
system.cpu0.istage2_mmu.stage2_tlb.prefetch_faults            0                       # Number of TLB faults due to prefetch
system.cpu0.istage2_mmu.stage2_tlb.domain_faults            0                       # Number of TLB faults due to domain restrictions
system.cpu0.istage2_mmu.stage2_tlb.perms_faults            0                       # Number of TLB faults due to permissions restrictions
system.cpu0.istage2_mmu.stage2_tlb.read_accesses            0                       # DTB read accesses
system.cpu0.istage2_mmu.stage2_tlb.write_accesses            0                       # DTB write accesses
system.cpu0.istage2_mmu.stage2_tlb.inst_accesses            0                       # ITB inst accesses
system.cpu0.istage2_mmu.stage2_tlb.hits             0                       # DTB hits
system.cpu0.istage2_mmu.stage2_tlb.misses            0                       # DTB misses
system.cpu0.istage2_mmu.stage2_tlb.accesses            0                       # DTB accesses
system.cpu0.itb.walker.walks                        0                       # Table walker walks requested
system.cpu0.itb.walker.walkRequestOrigin_Requested::Data            0                       # Table walker requests started/completed, data/inst
system.cpu0.itb.walker.walkRequestOrigin_Requested::Inst            0                       # Table walker requests started/completed, data/inst
system.cpu0.itb.walker.walkRequestOrigin_Requested::total            0                       # Table walker requests started/completed, data/inst
system.cpu0.itb.walker.walkRequestOrigin_Completed::Data            0                       # Table walker requests started/completed, data/inst
system.cpu0.itb.walker.walkRequestOrigin_Completed::Inst            0                       # Table walker requests started/completed, data/inst
system.cpu0.itb.walker.walkRequestOrigin_Completed::total            0                       # Table walker requests started/completed, data/inst
system.cpu0.itb.walker.walkRequestOrigin::total            0                       # Table walker requests started/completed, data/inst
system.cpu0.itb.inst_hits                           0                       # ITB inst hits
system.cpu0.itb.inst_misses                         0                       # ITB inst misses
system.cpu0.itb.read_hits                           0                       # DTB read hits
system.cpu0.itb.read_misses                         0                       # DTB read misses
system.cpu0.itb.write_hits                          0                       # DTB write hits
system.cpu0.itb.write_misses                        0                       # DTB write misses
system.cpu0.itb.flush_tlb                           0                       # Number of times complete TLB was flushed
system.cpu0.itb.flush_tlb_mva                       0                       # Number of times TLB was flushed by MVA
system.cpu0.itb.flush_tlb_mva_asid                  0                       # Number of times TLB was flushed by MVA & ASID
system.cpu0.itb.flush_tlb_asid                      0                       # Number of times TLB was flushed by ASID
system.cpu0.itb.flush_entries                       0                       # Number of entries that have been flushed from TLB
system.cpu0.itb.align_faults                        0                       # Number of TLB faults due to alignment restrictions
system.cpu0.itb.prefetch_faults                     0                       # Number of TLB faults due to prefetch
system.cpu0.itb.domain_faults                       0                       # Number of TLB faults due to domain restrictions
system.cpu0.itb.perms_faults                        0                       # Number of TLB faults due to permissions restrictions
system.cpu0.itb.read_accesses                       0                       # DTB read accesses
system.cpu0.itb.write_accesses                      0                       # DTB write accesses
system.cpu0.itb.inst_accesses                       0                       # ITB inst accesses
system.cpu0.itb.hits                                0                       # DTB hits
system.cpu0.itb.misses                              0                       # DTB misses
system.cpu0.itb.accesses                            0                       # DTB accesses
system.cpu0.workload.num_syscalls               70437                       # Number of system calls
system.cpu0.numCycles                        72993038                       # number of cpu cycles simulated
system.cpu0.numWorkItemsStarted                     0                       # number of work items this cpu started
system.cpu0.numWorkItemsCompleted                   0                       # number of work items this cpu completed
system.cpu0.fetch.icacheStallCycles              8191                       # Number of cycles fetch is stalled on an Icache miss
system.cpu0.fetch.Insts                     182428588                       # Number of instructions fetch has processed
system.cpu0.fetch.Branches                   36485570                       # Number of branches that fetch encountered
system.cpu0.fetch.predictedBranches          36483858                       # Number of branches that fetch has predicted taken
system.cpu0.fetch.Cycles                     72975839                       # Number of cycles fetch has run and was not squashing or blocked
system.cpu0.fetch.SquashCycles                   1493                       # Number of cycles fetch has spent squashing
system.cpu0.fetch.PendingTrapStallCycles          149                       # Number of stall cycles due to pending traps
system.cpu0.fetch.CacheLines                     1925                       # Number of cache lines fetched
system.cpu0.fetch.IcacheSquashes                  248                       # Number of outstanding Icache misses that were squashed
system.cpu0.fetch.rateDist::samples          72984925                       # Number of instructions fetched each cycle (Total)
system.cpu0.fetch.rateDist::mean             2.499596                       # Number of instructions fetched each cycle (Total)
system.cpu0.fetch.rateDist::stdev            0.501039                       # Number of instructions fetched each cycle (Total)
system.cpu0.fetch.rateDist::underflows              0      0.00%      0.00% # Number of instructions fetched each cycle (Total)
system.cpu0.fetch.rateDist::0                   12442      0.02%      0.02% # Number of instructions fetched each cycle (Total)
system.cpu0.fetch.rateDist::1                     637      0.00%      0.02% # Number of instructions fetched each cycle (Total)
system.cpu0.fetch.rateDist::2                36483323     49.99%     50.01% # Number of instructions fetched each cycle (Total)
system.cpu0.fetch.rateDist::3                36488523     49.99%    100.00% # Number of instructions fetched each cycle (Total)
system.cpu0.fetch.rateDist::overflows               0      0.00%    100.00% # Number of instructions fetched each cycle (Total)
system.cpu0.fetch.rateDist::min_value               0                       # Number of instructions fetched each cycle (Total)
system.cpu0.fetch.rateDist::max_value               3                       # Number of instructions fetched each cycle (Total)
system.cpu0.fetch.rateDist::total            72984925                       # Number of instructions fetched each cycle (Total)
system.cpu0.fetch.branchRate                 0.499850                       # Number of branch fetches per cycle
system.cpu0.fetch.rate                       2.499260                       # Number of inst fetches per cycle
system.cpu0.decode.IdleCycles                    7911                       # Number of cycles decode is idle
system.cpu0.decode.BlockedCycles                 5211                       # Number of cycles decode is blocked
system.cpu0.decode.RunCycles                 72970388                       # Number of cycles decode is running
system.cpu0.decode.UnblockCycles                  863                       # Number of cycles decode is unblocking
system.cpu0.decode.SquashCycles                   552                       # Number of cycles decode is squashing
system.cpu0.decode.BranchResolved                 362                       # Number of times decode resolved a branch
system.cpu0.decode.BranchMispred                  201                       # Number of times decode detected a branch misprediction
system.cpu0.decode.DecodedInsts             182430284                       # Number of instructions handled by decode
system.cpu0.decode.SquashedInsts                  477                       # Number of squashed instructions handled by decode
system.cpu0.rename.SquashCycles                   552                       # Number of cycles rename is squashing
system.cpu0.rename.IdleCycles                    8596                       # Number of cycles rename is idle
system.cpu0.rename.BlockCycles                    638                       # Number of cycles rename is blocking
system.cpu0.rename.serializeStallCycles          1845                       # count of cycles rename stalled for serializing inst
system.cpu0.rename.RunCycles                 72970459                       # Number of cycles rename is running
system.cpu0.rename.UnblockCycles                 2835                       # Number of cycles rename is unblocking
system.cpu0.rename.RenamedInsts             182429265                       # Number of instructions processed by rename
system.cpu0.rename.IQFullEvents                    16                       # Number of times rename has blocked due to IQ full
system.cpu0.rename.LQFullEvents                    11                       # Number of times rename has blocked due to LQ full
system.cpu0.rename.SQFullEvents                  2671                       # Number of times rename has blocked due to SQ full
system.cpu0.rename.RenamedOperands          182430903                       # Number of destination operands rename has renamed
system.cpu0.rename.RenameLookups            839179132                       # Number of register rename lookups that rename has made
system.cpu0.rename.int_rename_lookups       182434407                       # Number of integer rename lookups
system.cpu0.rename.fp_rename_lookups               16                       # Number of floating rename lookups
system.cpu0.rename.CommittedMaps            182423122                       # Number of HB maps that are committed
system.cpu0.rename.UndoneMaps                    7781                       # Number of HB maps that are undone due to squashing
system.cpu0.rename.serializingInsts                48                       # count of serializing insts renamed
system.cpu0.rename.tempSerializingInsts            47                       # count of temporary serializing insts renamed
system.cpu0.rename.skidInsts                     1200                       # count of insts added to the skid buffer
system.cpu0.memDep0.insertedLoads            72966873                       # Number of loads inserted to the mem dependence unit.
system.cpu0.memDep0.insertedStores           36485939                       # Number of stores inserted to the mem dependence unit.
system.cpu0.memDep0.conflictingLoads         36481798                       # Number of conflicting loads.
system.cpu0.memDep0.conflictingStores        36481772                       # Number of conflicting stores.
system.cpu0.iq.iqInstsAdded                 182427348                       # Number of instructions added to the IQ (excludes non-spec)
system.cpu0.iq.iqNonSpecInstsAdded                 70                       # Number of non-speculative instructions added to the IQ
system.cpu0.iq.iqInstsIssued                182425014                       # Number of instructions issued
system.cpu0.iq.iqSquashedInstsIssued              491                       # Number of squashed instructions issued
system.cpu0.iq.iqSquashedInstsExamined           5323                       # Number of squashed instructions iterated over during squash; mainly for profiling
system.cpu0.iq.iqSquashedOperandsExamined        13783                       # Number of squashed operands that are examined and possibly removed from graph
system.cpu0.iq.iqSquashedNonSpecRemoved             5                       # Number of squashed non-spec instructions that were removed
system.cpu0.iq.issued_per_cycle::samples     72984925                       # Number of insts issued each cycle
system.cpu0.iq.issued_per_cycle::mean        2.499489                       # Number of insts issued each cycle
system.cpu0.iq.issued_per_cycle::stdev       0.707894                       # Number of insts issued each cycle
system.cpu0.iq.issued_per_cycle::underflows            0      0.00%      0.00% # Number of insts issued each cycle
system.cpu0.iq.issued_per_cycle::0              13395      0.02%      0.02% # Number of insts issued each cycle
system.cpu0.iq.issued_per_cycle::1            9123578     12.50%     12.52% # Number of insts issued each cycle
system.cpu0.iq.issued_per_cycle::2           18242420     24.99%     37.51% # Number of insts issued each cycle
system.cpu0.iq.issued_per_cycle::3           45605532     62.49%    100.00% # Number of insts issued each cycle
system.cpu0.iq.issued_per_cycle::overflows            0      0.00%    100.00% # Number of insts issued each cycle
system.cpu0.iq.issued_per_cycle::min_value            0                       # Number of insts issued each cycle
system.cpu0.iq.issued_per_cycle::max_value            3                       # Number of insts issued each cycle
system.cpu0.iq.issued_per_cycle::total       72984925                       # Number of insts issued each cycle
system.cpu0.iq.fu_full::No_OpClass                  0                       # attempts to use FU when none available
system.cpu0.iq.fu_full::IntAlu                      0                       # attempts to use FU when none available
system.cpu0.iq.fu_full::IntMult                     0                       # attempts to use FU when none available
system.cpu0.iq.fu_full::IntDiv                      0                       # attempts to use FU when none available
system.cpu0.iq.fu_full::FloatAdd                    0                       # attempts to use FU when none available
system.cpu0.iq.fu_full::FloatCmp                    0                       # attempts to use FU when none available
system.cpu0.iq.fu_full::FloatCvt                    0                       # attempts to use FU when none available
system.cpu0.iq.fu_full::FloatMult                   0                       # attempts to use FU when none available
system.cpu0.iq.fu_full::FloatDiv                    0                       # attempts to use FU when none available
system.cpu0.iq.fu_full::FloatSqrt                   0                       # attempts to use FU when none available
system.cpu0.iq.fu_full::SimdAdd                     0                       # attempts to use FU when none available
system.cpu0.iq.fu_full::SimdAddAcc                  0                       # attempts to use FU when none available
system.cpu0.iq.fu_full::SimdAlu                     0                       # attempts to use FU when none available
system.cpu0.iq.fu_full::SimdCmp                     0                       # attempts to use FU when none available
system.cpu0.iq.fu_full::SimdCvt                     0                       # attempts to use FU when none available
system.cpu0.iq.fu_full::SimdMisc                    0                       # attempts to use FU when none available
system.cpu0.iq.fu_full::SimdMult                    0                       # attempts to use FU when none available
system.cpu0.iq.fu_full::SimdMultAcc                 0                       # attempts to use FU when none available
system.cpu0.iq.fu_full::SimdShift                   0                       # attempts to use FU when none available
system.cpu0.iq.fu_full::SimdShiftAcc                0                       # attempts to use FU when none available
system.cpu0.iq.fu_full::SimdSqrt                    0                       # attempts to use FU when none available
system.cpu0.iq.fu_full::SimdFloatAdd                0                       # attempts to use FU when none available
system.cpu0.iq.fu_full::SimdFloatAlu                0                       # attempts to use FU when none available
system.cpu0.iq.fu_full::SimdFloatCmp                0                       # attempts to use FU when none available
system.cpu0.iq.fu_full::SimdFloatCvt                0                       # attempts to use FU when none available
system.cpu0.iq.fu_full::SimdFloatDiv                0                       # attempts to use FU when none available
system.cpu0.iq.fu_full::SimdFloatMisc               0                       # attempts to use FU when none available
system.cpu0.iq.fu_full::SimdFloatMult               0                       # attempts to use FU when none available
system.cpu0.iq.fu_full::SimdFloatMultAcc            0                       # attempts to use FU when none available
system.cpu0.iq.fu_full::SimdFloatSqrt               0                       # attempts to use FU when none available
system.cpu0.iq.fu_full::MemRead                     0                       # attempts to use FU when none available
system.cpu0.iq.fu_full::MemWrite                    0                       # attempts to use FU when none available
system.cpu0.iq.fu_full::IprAccess                   0                       # attempts to use FU when none available
system.cpu0.iq.fu_full::InstPrefetch                0                       # attempts to use FU when none available
system.cpu0.iq.FU_type_0::No_OpClass                0      0.00%      0.00% # Type of FU issued
system.cpu0.iq.FU_type_0::IntAlu             72972992     40.00%     40.00% # Type of FU issued
system.cpu0.iq.FU_type_0::IntMult                   6      0.00%     40.00% # Type of FU issued
system.cpu0.iq.FU_type_0::IntDiv                    0      0.00%     40.00% # Type of FU issued
system.cpu0.iq.FU_type_0::FloatAdd                  0      0.00%     40.00% # Type of FU issued
system.cpu0.iq.FU_type_0::FloatCmp                  0      0.00%     40.00% # Type of FU issued
system.cpu0.iq.FU_type_0::FloatCvt                  0      0.00%     40.00% # Type of FU issued
system.cpu0.iq.FU_type_0::FloatMult                 0      0.00%     40.00% # Type of FU issued
system.cpu0.iq.FU_type_0::FloatDiv                  0      0.00%     40.00% # Type of FU issued
system.cpu0.iq.FU_type_0::FloatSqrt                 0      0.00%     40.00% # Type of FU issued
system.cpu0.iq.FU_type_0::SimdAdd                   0      0.00%     40.00% # Type of FU issued
system.cpu0.iq.FU_type_0::SimdAddAcc                0      0.00%     40.00% # Type of FU issued
system.cpu0.iq.FU_type_0::SimdAlu                   0      0.00%     40.00% # Type of FU issued
system.cpu0.iq.FU_type_0::SimdCmp                   0      0.00%     40.00% # Type of FU issued
system.cpu0.iq.FU_type_0::SimdCvt                   0      0.00%     40.00% # Type of FU issued
system.cpu0.iq.FU_type_0::SimdMisc                  0      0.00%     40.00% # Type of FU issued
system.cpu0.iq.FU_type_0::SimdMult                  0      0.00%     40.00% # Type of FU issued
system.cpu0.iq.FU_type_0::SimdMultAcc               0      0.00%     40.00% # Type of FU issued
system.cpu0.iq.FU_type_0::SimdShift                 0      0.00%     40.00% # Type of FU issued
system.cpu0.iq.FU_type_0::SimdShiftAcc              0      0.00%     40.00% # Type of FU issued
system.cpu0.iq.FU_type_0::SimdSqrt                  0      0.00%     40.00% # Type of FU issued
system.cpu0.iq.FU_type_0::SimdFloatAdd              0      0.00%     40.00% # Type of FU issued
system.cpu0.iq.FU_type_0::SimdFloatAlu              0      0.00%     40.00% # Type of FU issued
system.cpu0.iq.FU_type_0::SimdFloatCmp              0      0.00%     40.00% # Type of FU issued
system.cpu0.iq.FU_type_0::SimdFloatCvt              0      0.00%     40.00% # Type of FU issued
system.cpu0.iq.FU_type_0::SimdFloatDiv              0      0.00%     40.00% # Type of FU issued
system.cpu0.iq.FU_type_0::SimdFloatMisc             3      0.00%     40.00% # Type of FU issued
system.cpu0.iq.FU_type_0::SimdFloatMult             0      0.00%     40.00% # Type of FU issued
system.cpu0.iq.FU_type_0::SimdFloatMultAcc            0      0.00%     40.00% # Type of FU issued
system.cpu0.iq.FU_type_0::SimdFloatSqrt             0      0.00%     40.00% # Type of FU issued
system.cpu0.iq.FU_type_0::MemRead            72966370     40.00%     80.00% # Type of FU issued
system.cpu0.iq.FU_type_0::MemWrite           36485643     20.00%    100.00% # Type of FU issued
system.cpu0.iq.FU_type_0::IprAccess                 0      0.00%    100.00% # Type of FU issued
system.cpu0.iq.FU_type_0::InstPrefetch              0      0.00%    100.00% # Type of FU issued
system.cpu0.iq.FU_type_0::total             182425014                       # Type of FU issued
system.cpu0.iq.rate                          2.499211                       # Inst issue rate
system.cpu0.iq.fu_busy_cnt                          0                       # FU busy when requested
system.cpu0.iq.fu_busy_rate                         0                       # FU busy rate (busy events/executed inst)
system.cpu0.iq.int_inst_queue_reads         437835412                       # Number of integer instruction queue reads
system.cpu0.iq.int_inst_queue_writes        182432880                       # Number of integer instruction queue writes
system.cpu0.iq.int_inst_queue_wakeup_accesses    182424187                       # Number of integer instruction queue wakeup accesses
system.cpu0.iq.fp_inst_queue_reads                 32                       # Number of floating instruction queue reads
system.cpu0.iq.fp_inst_queue_writes                16                       # Number of floating instruction queue writes
system.cpu0.iq.fp_inst_queue_wakeup_accesses           16                       # Number of floating instruction queue wakeup accesses
system.cpu0.iq.int_alu_accesses             182424998                       # Number of integer alu accesses
system.cpu0.iq.fp_alu_accesses                     16                       # Number of floating point alu accesses
system.cpu0.iew.lsq.thread0.forwLoads        36482087                       # Number of loads that had data forwarded from stores
system.cpu0.iew.lsq.thread0.invAddrLoads            0                       # Number of loads ignored due to an invalid address
system.cpu0.iew.lsq.thread0.squashedLoads         1554                       # Number of loads squashed
system.cpu0.iew.lsq.thread0.ignoredResponses            2                       # Number of memory responses ignored because the instruction is squashed
system.cpu0.iew.lsq.thread0.memOrderViolation          155                       # Number of memory ordering violations
system.cpu0.iew.lsq.thread0.squashedStores          580                       # Number of stores squashed
system.cpu0.iew.lsq.thread0.invAddrSwpfs            0                       # Number of software prefetches ignored due to an invalid address
system.cpu0.iew.lsq.thread0.blockedLoads            0                       # Number of blocked loads due to partial load-store forwarding
system.cpu0.iew.lsq.thread0.rescheduledLoads            5                       # Number of loads that were rescheduled
system.cpu0.iew.lsq.thread0.cacheBlocked            0                       # Number of times an access to memory failed due to the cache being blocked
system.cpu0.iew.iewIdleCycles                       0                       # Number of cycles IEW is idle
system.cpu0.iew.iewSquashCycles                   552                       # Number of cycles IEW is squashing
system.cpu0.iew.iewBlockCycles                    502                       # Number of cycles IEW is blocking
system.cpu0.iew.iewUnblockCycles                  136                       # Number of cycles IEW is unblocking
system.cpu0.iew.iewDispatchedInsts          182427437                       # Number of instructions dispatched to IQ
system.cpu0.iew.iewDispSquashedInsts              262                       # Number of squashed instructions skipped by dispatch
system.cpu0.iew.iewDispLoadInsts             72966873                       # Number of dispatched load instructions
system.cpu0.iew.iewDispStoreInsts            36485939                       # Number of dispatched store instructions
system.cpu0.iew.iewDispNonSpecInsts                44                       # Number of dispatched non-speculative instructions
system.cpu0.iew.iewIQFullEvents                    11                       # Number of times the IQ has become full, causing a stall
system.cpu0.iew.iewLSQFullEvents                    0                       # Number of times the LSQ has become full, causing a stall
system.cpu0.iew.memOrderViolationEvents           155                       # Number of memory order violations
system.cpu0.iew.predictedTakenIncorrect           107                       # Number of branches that were predicted taken incorrectly
system.cpu0.iew.predictedNotTakenIncorrect          300                       # Number of branches that were predicted not taken incorrectly
system.cpu0.iew.branchMispredicts                 407                       # Number of branch mispredicts detected at execute
system.cpu0.iew.iewExecutedInsts            182424494                       # Number of executed instructions
system.cpu0.iew.iewExecLoadInsts             72966262                       # Number of load instructions executed
system.cpu0.iew.iewExecSquashedInsts              520                       # Number of squashed instructions skipped in execute
system.cpu0.iew.exec_swp                            0                       # number of swp insts executed
system.cpu0.iew.exec_nop                           19                       # number of nop insts executed
system.cpu0.iew.exec_refs                   109451723                       # number of memory reference insts executed
system.cpu0.iew.exec_branches                36483974                       # Number of branches executed
system.cpu0.iew.exec_forward_branches             808                       # Number of forward branches executed
system.cpu0.iew.exec_backward_branches       36482858                       # Number of backward branches executed
system.cpu0.iew.exec_taken_forward_branches          301                       # Number of forward branches executed that is taken
system.cpu0.iew.exec_nottaken_forward_branches          507                       # Number of forward branches executed that is not taken
system.cpu0.iew.exec_taken_backward_branches     36482629                       # Number of backward branches executed that is taken
system.cpu0.iew.exec_nottaken_backward_branches          229                       # Number of backward branches executed that is not taken
system.cpu0.iew.exec_stores                  36485461                       # Number of stores executed
system.cpu0.iew.exec_rate                    2.499204                       # Inst execution rate
system.cpu0.iew.wb_sent                     182424276                       # cumulative count of insts sent to commit
system.cpu0.iew.wb_count                    182424203                       # cumulative count of insts written-back
system.cpu0.iew.wb_producers                109452414                       # num instructions producing a value
system.cpu0.iew.wb_consumers                109462248                       # num instructions consuming a value
system.cpu0.iew.wb_penalized                        0                       # number of instrctions required to write to 'other' IQ
system.cpu0.iew.wb_rate                      2.499200                       # insts written-back per cycle
system.cpu0.iew.wb_fanout                    0.999910                       # average fanout of values written-back
system.cpu0.iew.wb_penalized_rate                   0                       # fraction of instructions written-back that wrote to 'other' IQ
system.cpu0.commit.commitSquashedInsts           5341                       # The number of squashed insts skipped by commit
system.cpu0.commit.commitNonSpecStalls             65                       # The number of times commit has been forced to stall to communicate backwards
system.cpu0.commit.branchMispredicts              384                       # The number of times a branch was mispredicted
system.cpu0.commit.committed_per_cycle::samples     72983981                       # Number of insts commited each cycle
system.cpu0.commit.committed_per_cycle::mean     2.499481                       # Number of insts commited each cycle
system.cpu0.commit.committed_per_cycle::stdev     1.581365                       # Number of insts commited each cycle
system.cpu0.commit.committed_per_cycle::underflows            0      0.00%      0.00% # Number of insts commited each cycle
system.cpu0.commit.committed_per_cycle::0        14338      0.02%      0.02% # Number of insts commited each cycle
system.cpu0.commit.committed_per_cycle::1     36484366     49.99%     50.01% # Number of insts commited each cycle
system.cpu0.commit.committed_per_cycle::2         1266      0.00%     50.01% # Number of insts commited each cycle
system.cpu0.commit.committed_per_cycle::3      9122308     12.50%     62.51% # Number of insts commited each cycle
system.cpu0.commit.committed_per_cycle::4     18240897     24.99%     87.50% # Number of insts commited each cycle
system.cpu0.commit.committed_per_cycle::5      9120480     12.50%    100.00% # Number of insts commited each cycle
system.cpu0.commit.committed_per_cycle::6           74      0.00%    100.00% # Number of insts commited each cycle
system.cpu0.commit.committed_per_cycle::7          175      0.00%    100.00% # Number of insts commited each cycle
system.cpu0.commit.committed_per_cycle::8           77      0.00%    100.00% # Number of insts commited each cycle
system.cpu0.commit.committed_per_cycle::overflows            0      0.00%    100.00% # Number of insts commited each cycle
system.cpu0.commit.committed_per_cycle::min_value            0                       # Number of insts commited each cycle
system.cpu0.commit.committed_per_cycle::max_value            8                       # Number of insts commited each cycle
system.cpu0.commit.committed_per_cycle::total     72983981                       # Number of insts commited each cycle
system.cpu0.commit.committedInsts           182418758                       # Number of instructions committed
system.cpu0.commit.committedOps             182422095                       # Number of ops (including micro ops) committed
system.cpu0.commit.swp_count                        0                       # Number of s/w prefetches committed
system.cpu0.commit.refs                     109450678                       # Number of memory references committed
system.cpu0.commit.loads                     72965319                       # Number of loads committed
system.cpu0.commit.membars                         26                       # Number of memory barriers committed
system.cpu0.commit.branches                  36483568                       # Number of branches committed
system.cpu0.commit.fp_insts                        16                       # Number of committed floating point instructions.
system.cpu0.commit.int_insts                145938907                       # Number of committed integer instructions.
system.cpu0.commit.function_calls                 148                       # Number of function calls committed.
system.cpu0.commit.op_class_0::No_OpClass            0      0.00%      0.00% # Class of committed instruction
system.cpu0.commit.op_class_0::IntAlu        72971408     40.00%     40.00% # Class of committed instruction
system.cpu0.commit.op_class_0::IntMult              6      0.00%     40.00% # Class of committed instruction
system.cpu0.commit.op_class_0::IntDiv               0      0.00%     40.00% # Class of committed instruction
system.cpu0.commit.op_class_0::FloatAdd             0      0.00%     40.00% # Class of committed instruction
system.cpu0.commit.op_class_0::FloatCmp             0      0.00%     40.00% # Class of committed instruction
system.cpu0.commit.op_class_0::FloatCvt             0      0.00%     40.00% # Class of committed instruction
system.cpu0.commit.op_class_0::FloatMult            0      0.00%     40.00% # Class of committed instruction
system.cpu0.commit.op_class_0::FloatDiv             0      0.00%     40.00% # Class of committed instruction
system.cpu0.commit.op_class_0::FloatSqrt            0      0.00%     40.00% # Class of committed instruction
system.cpu0.commit.op_class_0::SimdAdd              0      0.00%     40.00% # Class of committed instruction
system.cpu0.commit.op_class_0::SimdAddAcc            0      0.00%     40.00% # Class of committed instruction
system.cpu0.commit.op_class_0::SimdAlu              0      0.00%     40.00% # Class of committed instruction
system.cpu0.commit.op_class_0::SimdCmp              0      0.00%     40.00% # Class of committed instruction
system.cpu0.commit.op_class_0::SimdCvt              0      0.00%     40.00% # Class of committed instruction
system.cpu0.commit.op_class_0::SimdMisc             0      0.00%     40.00% # Class of committed instruction
system.cpu0.commit.op_class_0::SimdMult             0      0.00%     40.00% # Class of committed instruction
system.cpu0.commit.op_class_0::SimdMultAcc            0      0.00%     40.00% # Class of committed instruction
system.cpu0.commit.op_class_0::SimdShift            0      0.00%     40.00% # Class of committed instruction
system.cpu0.commit.op_class_0::SimdShiftAcc            0      0.00%     40.00% # Class of committed instruction
system.cpu0.commit.op_class_0::SimdSqrt             0      0.00%     40.00% # Class of committed instruction
system.cpu0.commit.op_class_0::SimdFloatAdd            0      0.00%     40.00% # Class of committed instruction
system.cpu0.commit.op_class_0::SimdFloatAlu            0      0.00%     40.00% # Class of committed instruction
system.cpu0.commit.op_class_0::SimdFloatCmp            0      0.00%     40.00% # Class of committed instruction
system.cpu0.commit.op_class_0::SimdFloatCvt            0      0.00%     40.00% # Class of committed instruction
system.cpu0.commit.op_class_0::SimdFloatDiv            0      0.00%     40.00% # Class of committed instruction
system.cpu0.commit.op_class_0::SimdFloatMisc            3      0.00%     40.00% # Class of committed instruction
system.cpu0.commit.op_class_0::SimdFloatMult            0      0.00%     40.00% # Class of committed instruction
system.cpu0.commit.op_class_0::SimdFloatMultAcc            0      0.00%     40.00% # Class of committed instruction
system.cpu0.commit.op_class_0::SimdFloatSqrt            0      0.00%     40.00% # Class of committed instruction
system.cpu0.commit.op_class_0::MemRead       72965319     40.00%     80.00% # Class of committed instruction
system.cpu0.commit.op_class_0::MemWrite      36485359     20.00%    100.00% # Class of committed instruction
system.cpu0.commit.op_class_0::IprAccess            0      0.00%    100.00% # Class of committed instruction
system.cpu0.commit.op_class_0::InstPrefetch            0      0.00%    100.00% # Class of committed instruction
system.cpu0.commit.op_class_0::total        182422095                       # Class of committed instruction
system.cpu0.commit.bw_lim_events                   77                       # number cycles where commit BW limit reached
system.cpu0.rob.rob_reads                   255411183                       # The number of ROB reads
system.cpu0.rob.rob_writes                  364855821                       # The number of ROB writes
system.cpu0.timesIdled                            247                       # Number of times that the entire CPU went into an idle state and unscheduled itself
system.cpu0.idleCycles                           8113                       # Total number of cycles that the CPU has spent unscheduled due to idling
system.cpu0.committedInsts                  182418758                       # Number of Instructions Simulated
system.cpu0.committedOps                    182422095                       # Number of Ops (including micro ops) Simulated
system.cpu0.cpi                              0.400140                       # CPI: Cycles Per Instruction
system.cpu0.cpi_total                        0.400140                       # CPI: Total CPI of All Threads
system.cpu0.ipc                              2.499125                       # IPC: Instructions Per Cycle
system.cpu0.ipc_total                        2.499125                       # IPC: Total IPC of All Threads
system.cpu0.int_regfile_reads               182426891                       # number of integer regfile reads
system.cpu0.int_regfile_writes               72972059                       # number of integer regfile writes
system.cpu0.fp_regfile_reads                      336                       # number of floating regfile reads
system.cpu0.cc_regfile_reads                766171347                       # number of cc regfile reads
system.cpu0.cc_regfile_writes               109453325                       # number of cc regfile writes
system.cpu0.misc_regfile_reads              111264363                       # number of misc regfile reads
system.cpu0.misc_regfile_writes                    52                       # number of misc regfile writes
system.cpu0.dcache.tags.replacements               28                       # number of replacements
system.cpu0.dcache.tags.tagsinuse          125.153254                       # Cycle average of tags in use
system.cpu0.dcache.tags.total_refs           72966597                       # Total number of references to valid blocks.
system.cpu0.dcache.tags.sampled_refs              172                       # Sample count of references to valid blocks.
system.cpu0.dcache.tags.avg_refs         424224.401163                       # Average number of references to valid blocks.
system.cpu0.dcache.tags.warmup_cycle                0                       # Cycle when the warmup percentage was hit.
system.cpu0.dcache.tags.occ_blocks::cpu0.data   125.153254                       # Average occupied blocks per requestor
system.cpu0.dcache.tags.occ_percent::cpu0.data     0.244440                       # Average percentage of cache occupancy
system.cpu0.dcache.tags.occ_percent::total     0.244440                       # Average percentage of cache occupancy
system.cpu0.dcache.tags.occ_task_id_blocks::1024          144                       # Occupied blocks per task id
system.cpu0.dcache.tags.age_task_id_blocks_1024::0           24                       # Occupied blocks per task id
system.cpu0.dcache.tags.age_task_id_blocks_1024::4          120                       # Occupied blocks per task id
system.cpu0.dcache.tags.occ_task_id_percent::1024     0.281250                       # Percentage of cache occupancy per task id
system.cpu0.dcache.tags.tag_accesses        145939028                       # Number of tag accesses
system.cpu0.dcache.tags.data_accesses       145939028                       # Number of data accesses
system.cpu0.dcache.ReadReq_hits::cpu0.data     36483816                       # number of ReadReq hits
system.cpu0.dcache.ReadReq_hits::total       36483816                       # number of ReadReq hits
system.cpu0.dcache.WriteReq_hits::cpu0.data     36482920                       # number of WriteReq hits
system.cpu0.dcache.WriteReq_hits::total      36482920                       # number of WriteReq hits
system.cpu0.dcache.LoadLockedReq_hits::cpu0.data           22                       # number of LoadLockedReq hits
system.cpu0.dcache.LoadLockedReq_hits::total           22                       # number of LoadLockedReq hits
system.cpu0.dcache.StoreCondReq_hits::cpu0.data           24                       # number of StoreCondReq hits
system.cpu0.dcache.StoreCondReq_hits::total           24                       # number of StoreCondReq hits
system.cpu0.dcache.demand_hits::cpu0.data     72966736                       # number of demand (read+write) hits
system.cpu0.dcache.demand_hits::total        72966736                       # number of demand (read+write) hits
system.cpu0.dcache.overall_hits::cpu0.data     72966736                       # number of overall hits
system.cpu0.dcache.overall_hits::total       72966736                       # number of overall hits
system.cpu0.dcache.ReadReq_misses::cpu0.data          202                       # number of ReadReq misses
system.cpu0.dcache.ReadReq_misses::total          202                       # number of ReadReq misses
system.cpu0.dcache.WriteReq_misses::cpu0.data         2369                       # number of WriteReq misses
system.cpu0.dcache.WriteReq_misses::total         2369                       # number of WriteReq misses
system.cpu0.dcache.LoadLockedReq_misses::cpu0.data            3                       # number of LoadLockedReq misses
system.cpu0.dcache.LoadLockedReq_misses::total            3                       # number of LoadLockedReq misses
system.cpu0.dcache.StoreCondReq_misses::cpu0.data            1                       # number of StoreCondReq misses
system.cpu0.dcache.StoreCondReq_misses::total            1                       # number of StoreCondReq misses
system.cpu0.dcache.demand_misses::cpu0.data         2571                       # number of demand (read+write) misses
system.cpu0.dcache.demand_misses::total          2571                       # number of demand (read+write) misses
system.cpu0.dcache.overall_misses::cpu0.data         2571                       # number of overall misses
system.cpu0.dcache.overall_misses::total         2571                       # number of overall misses
system.cpu0.dcache.ReadReq_miss_latency::cpu0.data      9208990                       # number of ReadReq miss cycles
system.cpu0.dcache.ReadReq_miss_latency::total      9208990                       # number of ReadReq miss cycles
system.cpu0.dcache.WriteReq_miss_latency::cpu0.data    118804500                       # number of WriteReq miss cycles
system.cpu0.dcache.WriteReq_miss_latency::total    118804500                       # number of WriteReq miss cycles
system.cpu0.dcache.LoadLockedReq_miss_latency::cpu0.data       133500                       # number of LoadLockedReq miss cycles
system.cpu0.dcache.LoadLockedReq_miss_latency::total       133500                       # number of LoadLockedReq miss cycles
system.cpu0.dcache.StoreCondReq_miss_latency::cpu0.data         7500                       # number of StoreCondReq miss cycles
system.cpu0.dcache.StoreCondReq_miss_latency::total         7500                       # number of StoreCondReq miss cycles
system.cpu0.dcache.demand_miss_latency::cpu0.data    128013490                       # number of demand (read+write) miss cycles
system.cpu0.dcache.demand_miss_latency::total    128013490                       # number of demand (read+write) miss cycles
system.cpu0.dcache.overall_miss_latency::cpu0.data    128013490                       # number of overall miss cycles
system.cpu0.dcache.overall_miss_latency::total    128013490                       # number of overall miss cycles
system.cpu0.dcache.ReadReq_accesses::cpu0.data     36484018                       # number of ReadReq accesses(hits+misses)
system.cpu0.dcache.ReadReq_accesses::total     36484018                       # number of ReadReq accesses(hits+misses)
system.cpu0.dcache.WriteReq_accesses::cpu0.data     36485289                       # number of WriteReq accesses(hits+misses)
system.cpu0.dcache.WriteReq_accesses::total     36485289                       # number of WriteReq accesses(hits+misses)
system.cpu0.dcache.LoadLockedReq_accesses::cpu0.data           25                       # number of LoadLockedReq accesses(hits+misses)
system.cpu0.dcache.LoadLockedReq_accesses::total           25                       # number of LoadLockedReq accesses(hits+misses)
system.cpu0.dcache.StoreCondReq_accesses::cpu0.data           25                       # number of StoreCondReq accesses(hits+misses)
system.cpu0.dcache.StoreCondReq_accesses::total           25                       # number of StoreCondReq accesses(hits+misses)
system.cpu0.dcache.demand_accesses::cpu0.data     72969307                       # number of demand (read+write) accesses
system.cpu0.dcache.demand_accesses::total     72969307                       # number of demand (read+write) accesses
system.cpu0.dcache.overall_accesses::cpu0.data     72969307                       # number of overall (read+write) accesses
system.cpu0.dcache.overall_accesses::total     72969307                       # number of overall (read+write) accesses
system.cpu0.dcache.ReadReq_miss_rate::cpu0.data     0.000006                       # miss rate for ReadReq accesses
system.cpu0.dcache.ReadReq_miss_rate::total     0.000006                       # miss rate for ReadReq accesses
system.cpu0.dcache.WriteReq_miss_rate::cpu0.data     0.000065                       # miss rate for WriteReq accesses
system.cpu0.dcache.WriteReq_miss_rate::total     0.000065                       # miss rate for WriteReq accesses
system.cpu0.dcache.LoadLockedReq_miss_rate::cpu0.data     0.120000                       # miss rate for LoadLockedReq accesses
system.cpu0.dcache.LoadLockedReq_miss_rate::total     0.120000                       # miss rate for LoadLockedReq accesses
system.cpu0.dcache.StoreCondReq_miss_rate::cpu0.data     0.040000                       # miss rate for StoreCondReq accesses
system.cpu0.dcache.StoreCondReq_miss_rate::total     0.040000                       # miss rate for StoreCondReq accesses
system.cpu0.dcache.demand_miss_rate::cpu0.data     0.000035                       # miss rate for demand accesses
system.cpu0.dcache.demand_miss_rate::total     0.000035                       # miss rate for demand accesses
system.cpu0.dcache.overall_miss_rate::cpu0.data     0.000035                       # miss rate for overall accesses
system.cpu0.dcache.overall_miss_rate::total     0.000035                       # miss rate for overall accesses
system.cpu0.dcache.ReadReq_avg_miss_latency::cpu0.data 45589.059406                       # average ReadReq miss latency
system.cpu0.dcache.ReadReq_avg_miss_latency::total 45589.059406                       # average ReadReq miss latency
system.cpu0.dcache.WriteReq_avg_miss_latency::cpu0.data 50149.641199                       # average WriteReq miss latency
system.cpu0.dcache.WriteReq_avg_miss_latency::total 50149.641199                       # average WriteReq miss latency
system.cpu0.dcache.LoadLockedReq_avg_miss_latency::cpu0.data        44500                       # average LoadLockedReq miss latency
system.cpu0.dcache.LoadLockedReq_avg_miss_latency::total        44500                       # average LoadLockedReq miss latency
system.cpu0.dcache.StoreCondReq_avg_miss_latency::cpu0.data         7500                       # average StoreCondReq miss latency
system.cpu0.dcache.StoreCondReq_avg_miss_latency::total         7500                       # average StoreCondReq miss latency
system.cpu0.dcache.demand_avg_miss_latency::cpu0.data 49791.322443                       # average overall miss latency
system.cpu0.dcache.demand_avg_miss_latency::total 49791.322443                       # average overall miss latency
system.cpu0.dcache.overall_avg_miss_latency::cpu0.data 49791.322443                       # average overall miss latency
system.cpu0.dcache.overall_avg_miss_latency::total 49791.322443                       # average overall miss latency
system.cpu0.dcache.blocked_cycles::no_mshrs            0                       # number of cycles access was blocked
system.cpu0.dcache.blocked_cycles::no_targets            0                       # number of cycles access was blocked
system.cpu0.dcache.blocked::no_mshrs                0                       # number of cycles access was blocked
system.cpu0.dcache.blocked::no_targets              0                       # number of cycles access was blocked
system.cpu0.dcache.avg_blocked_cycles::no_mshrs          nan                       # average number of cycles each access was blocked
system.cpu0.dcache.avg_blocked_cycles::no_targets          nan                       # average number of cycles each access was blocked
system.cpu0.dcache.fast_writes                      0                       # number of fast writes performed
system.cpu0.dcache.cache_copies                     0                       # number of cache copies performed
system.cpu0.dcache.writebacks::writebacks           11                       # number of writebacks
system.cpu0.dcache.writebacks::total               11                       # number of writebacks
system.cpu0.dcache.ReadReq_mshr_hits::cpu0.data           68                       # number of ReadReq MSHR hits
system.cpu0.dcache.ReadReq_mshr_hits::total           68                       # number of ReadReq MSHR hits
system.cpu0.dcache.WriteReq_mshr_hits::cpu0.data         2186                       # number of WriteReq MSHR hits
system.cpu0.dcache.WriteReq_mshr_hits::total         2186                       # number of WriteReq MSHR hits
system.cpu0.dcache.LoadLockedReq_mshr_hits::cpu0.data            3                       # number of LoadLockedReq MSHR hits
system.cpu0.dcache.LoadLockedReq_mshr_hits::total            3                       # number of LoadLockedReq MSHR hits
system.cpu0.dcache.demand_mshr_hits::cpu0.data         2254                       # number of demand (read+write) MSHR hits
system.cpu0.dcache.demand_mshr_hits::total         2254                       # number of demand (read+write) MSHR hits
system.cpu0.dcache.overall_mshr_hits::cpu0.data         2254                       # number of overall MSHR hits
system.cpu0.dcache.overall_mshr_hits::total         2254                       # number of overall MSHR hits
system.cpu0.dcache.ReadReq_mshr_misses::cpu0.data          134                       # number of ReadReq MSHR misses
system.cpu0.dcache.ReadReq_mshr_misses::total          134                       # number of ReadReq MSHR misses
system.cpu0.dcache.WriteReq_mshr_misses::cpu0.data          183                       # number of WriteReq MSHR misses
system.cpu0.dcache.WriteReq_mshr_misses::total          183                       # number of WriteReq MSHR misses
system.cpu0.dcache.StoreCondReq_mshr_misses::cpu0.data            1                       # number of StoreCondReq MSHR misses
system.cpu0.dcache.StoreCondReq_mshr_misses::total            1                       # number of StoreCondReq MSHR misses
system.cpu0.dcache.demand_mshr_misses::cpu0.data          317                       # number of demand (read+write) MSHR misses
system.cpu0.dcache.demand_mshr_misses::total          317                       # number of demand (read+write) MSHR misses
system.cpu0.dcache.overall_mshr_misses::cpu0.data          317                       # number of overall MSHR misses
system.cpu0.dcache.overall_mshr_misses::total          317                       # number of overall MSHR misses
system.cpu0.dcache.ReadReq_mshr_miss_latency::cpu0.data      6080006                       # number of ReadReq MSHR miss cycles
system.cpu0.dcache.ReadReq_mshr_miss_latency::total      6080006                       # number of ReadReq MSHR miss cycles
system.cpu0.dcache.WriteReq_mshr_miss_latency::cpu0.data      9967500                       # number of WriteReq MSHR miss cycles
system.cpu0.dcache.WriteReq_mshr_miss_latency::total      9967500                       # number of WriteReq MSHR miss cycles
system.cpu0.dcache.StoreCondReq_mshr_miss_latency::cpu0.data         4500                       # number of StoreCondReq MSHR miss cycles
system.cpu0.dcache.StoreCondReq_mshr_miss_latency::total         4500                       # number of StoreCondReq MSHR miss cycles
system.cpu0.dcache.demand_mshr_miss_latency::cpu0.data     16047506                       # number of demand (read+write) MSHR miss cycles
system.cpu0.dcache.demand_mshr_miss_latency::total     16047506                       # number of demand (read+write) MSHR miss cycles
system.cpu0.dcache.overall_mshr_miss_latency::cpu0.data     16047506                       # number of overall MSHR miss cycles
system.cpu0.dcache.overall_mshr_miss_latency::total     16047506                       # number of overall MSHR miss cycles
system.cpu0.dcache.ReadReq_mshr_miss_rate::cpu0.data     0.000004                       # mshr miss rate for ReadReq accesses
system.cpu0.dcache.ReadReq_mshr_miss_rate::total     0.000004                       # mshr miss rate for ReadReq accesses
system.cpu0.dcache.WriteReq_mshr_miss_rate::cpu0.data     0.000005                       # mshr miss rate for WriteReq accesses
system.cpu0.dcache.WriteReq_mshr_miss_rate::total     0.000005                       # mshr miss rate for WriteReq accesses
system.cpu0.dcache.StoreCondReq_mshr_miss_rate::cpu0.data     0.040000                       # mshr miss rate for StoreCondReq accesses
system.cpu0.dcache.StoreCondReq_mshr_miss_rate::total     0.040000                       # mshr miss rate for StoreCondReq accesses
system.cpu0.dcache.demand_mshr_miss_rate::cpu0.data     0.000004                       # mshr miss rate for demand accesses
system.cpu0.dcache.demand_mshr_miss_rate::total     0.000004                       # mshr miss rate for demand accesses
system.cpu0.dcache.overall_mshr_miss_rate::cpu0.data     0.000004                       # mshr miss rate for overall accesses
system.cpu0.dcache.overall_mshr_miss_rate::total     0.000004                       # mshr miss rate for overall accesses
system.cpu0.dcache.ReadReq_avg_mshr_miss_latency::cpu0.data 45373.179104                       # average ReadReq mshr miss latency
system.cpu0.dcache.ReadReq_avg_mshr_miss_latency::total 45373.179104                       # average ReadReq mshr miss latency
system.cpu0.dcache.WriteReq_avg_mshr_miss_latency::cpu0.data 54467.213115                       # average WriteReq mshr miss latency
system.cpu0.dcache.WriteReq_avg_mshr_miss_latency::total 54467.213115                       # average WriteReq mshr miss latency
system.cpu0.dcache.StoreCondReq_avg_mshr_miss_latency::cpu0.data         4500                       # average StoreCondReq mshr miss latency
system.cpu0.dcache.StoreCondReq_avg_mshr_miss_latency::total         4500                       # average StoreCondReq mshr miss latency
system.cpu0.dcache.demand_avg_mshr_miss_latency::cpu0.data 50623.047319                       # average overall mshr miss latency
system.cpu0.dcache.demand_avg_mshr_miss_latency::total 50623.047319                       # average overall mshr miss latency
system.cpu0.dcache.overall_avg_mshr_miss_latency::cpu0.data 50623.047319                       # average overall mshr miss latency
system.cpu0.dcache.overall_avg_mshr_miss_latency::total 50623.047319                       # average overall mshr miss latency
system.cpu0.dcache.no_allocate_misses               0                       # Number of misses that were no-allocate
system.cpu0.icache.tags.replacements               62                       # number of replacements
system.cpu0.icache.tags.tagsinuse          287.955922                       # Cycle average of tags in use
system.cpu0.icache.tags.total_refs               1485                       # Total number of references to valid blocks.
system.cpu0.icache.tags.sampled_refs              381                       # Sample count of references to valid blocks.
system.cpu0.icache.tags.avg_refs             3.897638                       # Average number of references to valid blocks.
system.cpu0.icache.tags.warmup_cycle                0                       # Cycle when the warmup percentage was hit.
system.cpu0.icache.tags.occ_blocks::cpu0.inst   287.955922                       # Average occupied blocks per requestor
system.cpu0.icache.tags.occ_percent::cpu0.inst     0.562414                       # Average percentage of cache occupancy
system.cpu0.icache.tags.occ_percent::total     0.562414                       # Average percentage of cache occupancy
system.cpu0.icache.tags.occ_task_id_blocks::1024          319                       # Occupied blocks per task id
system.cpu0.icache.tags.age_task_id_blocks_1024::0           44                       # Occupied blocks per task id
system.cpu0.icache.tags.age_task_id_blocks_1024::4          275                       # Occupied blocks per task id
system.cpu0.icache.tags.occ_task_id_percent::1024     0.623047                       # Percentage of cache occupancy per task id
system.cpu0.icache.tags.tag_accesses             4231                       # Number of tag accesses
system.cpu0.icache.tags.data_accesses            4231                       # Number of data accesses
system.cpu0.icache.ReadReq_hits::cpu0.inst         1485                       # number of ReadReq hits
system.cpu0.icache.ReadReq_hits::total           1485                       # number of ReadReq hits
system.cpu0.icache.demand_hits::cpu0.inst         1485                       # number of demand (read+write) hits
system.cpu0.icache.demand_hits::total            1485                       # number of demand (read+write) hits
system.cpu0.icache.overall_hits::cpu0.inst         1485                       # number of overall hits
system.cpu0.icache.overall_hits::total           1485                       # number of overall hits
system.cpu0.icache.ReadReq_misses::cpu0.inst          440                       # number of ReadReq misses
system.cpu0.icache.ReadReq_misses::total          440                       # number of ReadReq misses
system.cpu0.icache.demand_misses::cpu0.inst          440                       # number of demand (read+write) misses
system.cpu0.icache.demand_misses::total           440                       # number of demand (read+write) misses
system.cpu0.icache.overall_misses::cpu0.inst          440                       # number of overall misses
system.cpu0.icache.overall_misses::total          440                       # number of overall misses
system.cpu0.icache.ReadReq_miss_latency::cpu0.inst     22876497                       # number of ReadReq miss cycles
system.cpu0.icache.ReadReq_miss_latency::total     22876497                       # number of ReadReq miss cycles
system.cpu0.icache.demand_miss_latency::cpu0.inst     22876497                       # number of demand (read+write) miss cycles
system.cpu0.icache.demand_miss_latency::total     22876497                       # number of demand (read+write) miss cycles
system.cpu0.icache.overall_miss_latency::cpu0.inst     22876497                       # number of overall miss cycles
system.cpu0.icache.overall_miss_latency::total     22876497                       # number of overall miss cycles
system.cpu0.icache.ReadReq_accesses::cpu0.inst         1925                       # number of ReadReq accesses(hits+misses)
system.cpu0.icache.ReadReq_accesses::total         1925                       # number of ReadReq accesses(hits+misses)
system.cpu0.icache.demand_accesses::cpu0.inst         1925                       # number of demand (read+write) accesses
system.cpu0.icache.demand_accesses::total         1925                       # number of demand (read+write) accesses
system.cpu0.icache.overall_accesses::cpu0.inst         1925                       # number of overall (read+write) accesses
system.cpu0.icache.overall_accesses::total         1925                       # number of overall (read+write) accesses
system.cpu0.icache.ReadReq_miss_rate::cpu0.inst     0.228571                       # miss rate for ReadReq accesses
system.cpu0.icache.ReadReq_miss_rate::total     0.228571                       # miss rate for ReadReq accesses
system.cpu0.icache.demand_miss_rate::cpu0.inst     0.228571                       # miss rate for demand accesses
system.cpu0.icache.demand_miss_rate::total     0.228571                       # miss rate for demand accesses
system.cpu0.icache.overall_miss_rate::cpu0.inst     0.228571                       # miss rate for overall accesses
system.cpu0.icache.overall_miss_rate::total     0.228571                       # miss rate for overall accesses
system.cpu0.icache.ReadReq_avg_miss_latency::cpu0.inst 51992.038636                       # average ReadReq miss latency
system.cpu0.icache.ReadReq_avg_miss_latency::total 51992.038636                       # average ReadReq miss latency
system.cpu0.icache.demand_avg_miss_latency::cpu0.inst 51992.038636                       # average overall miss latency
system.cpu0.icache.demand_avg_miss_latency::total 51992.038636                       # average overall miss latency
system.cpu0.icache.overall_avg_miss_latency::cpu0.inst 51992.038636                       # average overall miss latency
system.cpu0.icache.overall_avg_miss_latency::total 51992.038636                       # average overall miss latency
system.cpu0.icache.blocked_cycles::no_mshrs           11                       # number of cycles access was blocked
system.cpu0.icache.blocked_cycles::no_targets            0                       # number of cycles access was blocked
system.cpu0.icache.blocked::no_mshrs                1                       # number of cycles access was blocked
system.cpu0.icache.blocked::no_targets              0                       # number of cycles access was blocked
system.cpu0.icache.avg_blocked_cycles::no_mshrs           11                       # average number of cycles each access was blocked
system.cpu0.icache.avg_blocked_cycles::no_targets          nan                       # average number of cycles each access was blocked
system.cpu0.icache.fast_writes                      0                       # number of fast writes performed
system.cpu0.icache.cache_copies                     0                       # number of cache copies performed
system.cpu0.icache.ReadReq_mshr_hits::cpu0.inst           59                       # number of ReadReq MSHR hits
system.cpu0.icache.ReadReq_mshr_hits::total           59                       # number of ReadReq MSHR hits
system.cpu0.icache.demand_mshr_hits::cpu0.inst           59                       # number of demand (read+write) MSHR hits
system.cpu0.icache.demand_mshr_hits::total           59                       # number of demand (read+write) MSHR hits
system.cpu0.icache.overall_mshr_hits::cpu0.inst           59                       # number of overall MSHR hits
system.cpu0.icache.overall_mshr_hits::total           59                       # number of overall MSHR hits
system.cpu0.icache.ReadReq_mshr_misses::cpu0.inst          381                       # number of ReadReq MSHR misses
system.cpu0.icache.ReadReq_mshr_misses::total          381                       # number of ReadReq MSHR misses
system.cpu0.icache.demand_mshr_misses::cpu0.inst          381                       # number of demand (read+write) MSHR misses
[...]
system.l2.ReadReq_mshr_miss_latency::total     42396000                       # number of ReadReq MSHR miss cycles
system.l2.UpgradeReq_mshr_miss_latency::cpu1.data   6369214012                       # number of UpgradeReq MSHR miss cycles
system.l2.UpgradeReq_mshr_miss_latency::cpu2.data   5648886682                       # number of UpgradeReq MSHR miss cycles
system.l2.UpgradeReq_mshr_miss_latency::total  12018100694                       # number of UpgradeReq MSHR miss cycles
system.l2.SCUpgradeReq_mshr_miss_latency::cpu1.data   1968162652                       # number of SCUpgradeReq MSHR miss cycles
system.l2.SCUpgradeReq_mshr_miss_latency::cpu2.data   1535004404                       # number of SCUpgradeReq MSHR miss cycles
system.l2.SCUpgradeReq_mshr_miss_latency::total   3503167056                       # number of SCUpgradeReq MSHR miss cycles
system.l2.ReadExReq_mshr_miss_latency::cpu0.data      7343000                       # number of ReadExReq MSHR miss cycles
system.l2.ReadExReq_mshr_miss_latency::cpu1.data     56795500                       # number of ReadExReq MSHR miss cycles
system.l2.ReadExReq_mshr_miss_latency::cpu2.data     57226500                       # number of ReadExReq MSHR miss cycles
system.l2.ReadExReq_mshr_miss_latency::total    121365000                       # number of ReadExReq MSHR miss cycles
system.l2.demand_mshr_miss_latency::cpu0.inst     14200500                       # number of demand (read+write) MSHR miss cycles
system.l2.demand_mshr_miss_latency::cpu0.data     11396500                       # number of demand (read+write) MSHR miss cycles
system.l2.demand_mshr_miss_latency::cpu1.inst      6313000                       # number of demand (read+write) MSHR miss cycles
system.l2.demand_mshr_miss_latency::cpu1.data     62786000                       # number of demand (read+write) MSHR miss cycles
system.l2.demand_mshr_miss_latency::cpu2.inst      6182000                       # number of demand (read+write) MSHR miss cycles
system.l2.demand_mshr_miss_latency::cpu2.data     62883000                       # number of demand (read+write) MSHR miss cycles
system.l2.demand_mshr_miss_latency::total    163761000                       # number of demand (read+write) MSHR miss cycles
system.l2.overall_mshr_miss_latency::cpu0.inst     14200500                       # number of overall MSHR miss cycles
system.l2.overall_mshr_miss_latency::cpu0.data     11396500                       # number of overall MSHR miss cycles
system.l2.overall_mshr_miss_latency::cpu1.inst      6313000                       # number of overall MSHR miss cycles
system.l2.overall_mshr_miss_latency::cpu1.data     62786000                       # number of overall MSHR miss cycles
system.l2.overall_mshr_miss_latency::cpu2.inst      6182000                       # number of overall MSHR miss cycles
system.l2.overall_mshr_miss_latency::cpu2.data     62883000                       # number of overall MSHR miss cycles
system.l2.overall_mshr_miss_latency::total    163761000                       # number of overall MSHR miss cycles
system.l2.ReadReq_mshr_miss_rate::cpu0.inst     0.908136                       # mshr miss rate for ReadReq accesses
system.l2.ReadReq_mshr_miss_rate::cpu0.data     0.744186                       # mshr miss rate for ReadReq accesses
system.l2.ReadReq_mshr_miss_rate::cpu1.inst     0.067774                       # mshr miss rate for ReadReq accesses
system.l2.ReadReq_mshr_miss_rate::cpu1.data     0.000814                       # mshr miss rate for ReadReq accesses
system.l2.ReadReq_mshr_miss_rate::cpu2.inst     0.027094                       # mshr miss rate for ReadReq accesses
system.l2.ReadReq_mshr_miss_rate::cpu2.data     0.000747                       # mshr miss rate for ReadReq accesses
system.l2.ReadReq_mshr_miss_rate::total      0.002759                       # mshr miss rate for ReadReq accesses
system.l2.UpgradeReq_mshr_miss_rate::cpu1.data     0.999987                       # mshr miss rate for UpgradeReq accesses
system.l2.UpgradeReq_mshr_miss_rate::cpu2.data     0.999971                       # mshr miss rate for UpgradeReq accesses
system.l2.UpgradeReq_mshr_miss_rate::total     0.999976                       # mshr miss rate for UpgradeReq accesses
system.l2.SCUpgradeReq_mshr_miss_rate::cpu1.data     0.999938                       # mshr miss rate for SCUpgradeReq accesses
system.l2.SCUpgradeReq_mshr_miss_rate::cpu2.data     0.999947                       # mshr miss rate for SCUpgradeReq accesses
system.l2.SCUpgradeReq_mshr_miss_rate::total     0.999942                       # mshr miss rate for SCUpgradeReq accesses
system.l2.ReadExReq_mshr_miss_rate::cpu0.data            1                       # mshr miss rate for ReadExReq accesses
system.l2.ReadExReq_mshr_miss_rate::cpu1.data     0.953710                       # mshr miss rate for ReadExReq accesses
system.l2.ReadExReq_mshr_miss_rate::cpu2.data     0.995067                       # mshr miss rate for ReadExReq accesses
system.l2.ReadExReq_mshr_miss_rate::total     0.975554                       # mshr miss rate for ReadExReq accesses
system.l2.demand_mshr_miss_rate::cpu0.inst     0.908136                       # mshr miss rate for demand accesses
system.l2.demand_mshr_miss_rate::cpu0.data     0.893204                       # mshr miss rate for demand accesses
system.l2.demand_mshr_miss_rate::cpu1.inst     0.067774                       # mshr miss rate for demand accesses
system.l2.demand_mshr_miss_rate::cpu1.data     0.008501                       # mshr miss rate for demand accesses
system.l2.demand_mshr_miss_rate::cpu2.inst     0.027094                       # mshr miss rate for demand accesses
system.l2.demand_mshr_miss_rate::cpu2.data     0.008272                       # mshr miss rate for demand accesses
system.l2.demand_mshr_miss_rate::total       0.010651                       # mshr miss rate for demand accesses
system.l2.overall_mshr_miss_rate::cpu0.inst     0.908136                       # mshr miss rate for overall accesses
system.l2.overall_mshr_miss_rate::cpu0.data     0.893204                       # mshr miss rate for overall accesses
system.l2.overall_mshr_miss_rate::cpu1.inst     0.067774                       # mshr miss rate for overall accesses
system.l2.overall_mshr_miss_rate::cpu1.data     0.008501                       # mshr miss rate for overall accesses
system.l2.overall_mshr_miss_rate::cpu2.inst     0.027094                       # mshr miss rate for overall accesses
system.l2.overall_mshr_miss_rate::cpu2.data     0.008272                       # mshr miss rate for overall accesses
system.l2.overall_mshr_miss_rate::total      0.010651                       # mshr miss rate for overall accesses
system.l2.ReadReq_avg_mshr_miss_latency::cpu0.inst 41041.907514                       # average ReadReq mshr miss latency
system.l2.ReadReq_avg_mshr_miss_latency::cpu0.data 42223.958333                       # average ReadReq mshr miss latency
system.l2.ReadReq_avg_mshr_miss_latency::cpu1.inst 40729.032258                       # average ReadReq mshr miss latency
system.l2.ReadReq_avg_mshr_miss_latency::cpu1.data 40751.700680                       # average ReadReq mshr miss latency
system.l2.ReadReq_avg_mshr_miss_latency::cpu2.inst 40671.052632                       # average ReadReq mshr miss latency
system.l2.ReadReq_avg_mshr_miss_latency::cpu2.data 40694.244604                       # average ReadReq mshr miss latency
system.l2.ReadReq_avg_mshr_miss_latency::total 40962.318841                       # average ReadReq mshr miss latency
system.l2.UpgradeReq_avg_mshr_miss_latency::cpu1.data 40525.393609                       # average UpgradeReq mshr miss latency
system.l2.UpgradeReq_avg_mshr_miss_latency::cpu2.data 40520.825224                       # average UpgradeReq mshr miss latency
system.l2.UpgradeReq_avg_mshr_miss_latency::total 40523.246196                       # average UpgradeReq mshr miss latency
system.l2.SCUpgradeReq_avg_mshr_miss_latency::cpu1.data 40513.846274                       # average SCUpgradeReq mshr miss latency
system.l2.SCUpgradeReq_avg_mshr_miss_latency::cpu2.data 40507.848314                       # average SCUpgradeReq mshr miss latency
system.l2.SCUpgradeReq_avg_mshr_miss_latency::total 40511.217892                       # average SCUpgradeReq mshr miss latency
system.l2.ReadExReq_avg_mshr_miss_latency::cpu0.data 40794.444444                       # average ReadExReq mshr miss latency
system.l2.ReadExReq_avg_mshr_miss_latency::cpu1.data 40539.257673                       # average ReadExReq mshr miss latency
system.l2.ReadExReq_avg_mshr_miss_latency::cpu2.data 40528.682720                       # average ReadExReq mshr miss latency
system.l2.ReadExReq_avg_mshr_miss_latency::total 40549.615770                       # average ReadExReq mshr miss latency
system.l2.demand_avg_mshr_miss_latency::cpu0.inst 41041.907514                       # average overall mshr miss latency
system.l2.demand_avg_mshr_miss_latency::cpu0.data 41291.666667                       # average overall mshr miss latency
system.l2.demand_avg_mshr_miss_latency::cpu1.inst 40729.032258                       # average overall mshr miss latency
system.l2.demand_avg_mshr_miss_latency::cpu1.data 40559.431525                       # average overall mshr miss latency
system.l2.demand_avg_mshr_miss_latency::cpu2.inst 40671.052632                       # average overall mshr miss latency
system.l2.demand_avg_mshr_miss_latency::cpu2.data 40543.520309                       # average overall mshr miss latency
system.l2.demand_avg_mshr_miss_latency::total 40655.660377                       # average overall mshr miss latency
system.l2.overall_avg_mshr_miss_latency::cpu0.inst 41041.907514                       # average overall mshr miss latency
system.l2.overall_avg_mshr_miss_latency::cpu0.data 41291.666667                       # average overall mshr miss latency
system.l2.overall_avg_mshr_miss_latency::cpu1.inst 40729.032258                       # average overall mshr miss latency
system.l2.overall_avg_mshr_miss_latency::cpu1.data 40559.431525                       # average overall mshr miss latency
system.l2.overall_avg_mshr_miss_latency::cpu2.inst 40671.052632                       # average overall mshr miss latency
system.l2.overall_avg_mshr_miss_latency::cpu2.data 40543.520309                       # average overall mshr miss latency
system.l2.overall_avg_mshr_miss_latency::total 40655.660377                       # average overall mshr miss latency
system.l2.no_allocate_misses                        0                       # Number of misses that were no-allocate
system.membus.trans_dist::ReadReq                1035                       # Transaction distribution
system.membus.trans_dist::ReadResp               1035                       # Transaction distribution
system.membus.trans_dist::UpgradeReq           492321                       # Transaction distribution
system.membus.trans_dist::SCUpgradeReq         408612                       # Transaction distribution
system.membus.trans_dist::UpgradeResp          383047                       # Transaction distribution
system.membus.trans_dist::ReadExReq              2995                       # Transaction distribution
system.membus.trans_dist::ReadExResp             2993                       # Transaction distribution
system.membus.pkt_count_system.l2.mem_side::system.physmem.port      1292038                       # Packet count per connected master and slave (bytes)
system.membus.pkt_count::total                1292038                       # Packet count per connected master and slave (bytes)
system.membus.pkt_size_system.l2.mem_side::system.physmem.port       257792                       # Cumulative packet size per connected master and slave (bytes)
system.membus.pkt_size::total                  257792                       # Cumulative packet size per connected master and slave (bytes)
system.membus.snoops                           517888                       # Total snoops (count)
system.membus.snoop_fanout::samples            905115                       # Request fanout histogram
system.membus.snoop_fanout::mean                    0                       # Request fanout histogram
system.membus.snoop_fanout::stdev                   0                       # Request fanout histogram
system.membus.snoop_fanout::underflows              0      0.00%      0.00% # Request fanout histogram
system.membus.snoop_fanout::0                  905115    100.00%    100.00% # Request fanout histogram
system.membus.snoop_fanout::1                       0      0.00%    100.00% # Request fanout histogram
system.membus.snoop_fanout::overflows               0      0.00%    100.00% # Request fanout histogram
system.membus.snoop_fanout::min_value               0                       # Request fanout histogram
system.membus.snoop_fanout::max_value               0                       # Request fanout histogram
system.membus.snoop_fanout::total              905115                       # Request fanout histogram
system.membus.reqLayer0.occupancy           576394543                       # Layer occupancy (ticks)
system.membus.reqLayer0.utilization               0.8                       # Layer utilization (%)
system.membus.respLayer1.occupancy          592218375                       # Layer occupancy (ticks)
system.membus.respLayer1.utilization              0.8                       # Layer utilization (%)
system.tol2bus.trans_dist::ReadReq            1335141                       # Transaction distribution
system.tol2bus.trans_dist::ReadResp           1335141                       # Transaction distribution
system.tol2bus.trans_dist::Writeback           328759                       # Transaction distribution
system.tol2bus.trans_dist::UpgradeReq          492328                       # Transaction distribution
system.tol2bus.trans_dist::SCUpgradeReq        408617                       # Transaction distribution
system.tol2bus.trans_dist::UpgradeResp         900945                       # Transaction distribution
system.tol2bus.trans_dist::SCUpgradeFailReq         2140                       # Transaction distribution
system.tol2bus.trans_dist::UpgradeFailResp         2140                       # Transaction distribution
system.tol2bus.trans_dist::ReadExReq             3329                       # Transaction distribution
system.tol2bus.trans_dist::ReadExResp            3329                       # Transaction distribution
system.tol2bus.pkt_count_system.cpu0.icache.mem_side::system.l2.cpu_side          762                       # Packet count per connected master and slave (bytes)
system.tol2bus.pkt_count_system.cpu0.dcache.mem_side::system.l2.cpu_side          639                       # Packet count per connected master and slave (bytes)
system.tol2bus.pkt_count_system.cpu1.icache.mem_side::system.l2.cpu_side         4574                       # Packet count per connected master and slave (bytes)
system.tol2bus.pkt_count_system.cpu1.dcache.mem_side::system.l2.cpu_side      1663207                       # Packet count per connected master and slave (bytes)
system.tol2bus.pkt_count_system.cpu2.icache.mem_side::system.l2.cpu_side        11220                       # Packet count per connected master and slave (bytes)
system.tol2bus.pkt_count_system.cpu2.dcache.mem_side::system.l2.cpu_side      1651141                       # Packet count per connected master and slave (bytes)
system.tol2bus.pkt_count::total               3331543                       # Packet count per connected master and slave (bytes)
system.tol2bus.pkt_size_system.cpu0.icache.mem_side::system.l2.cpu_side        24384                       # Cumulative packet size per connected master and slave (bytes)
system.tol2bus.pkt_size_system.cpu0.dcache.mem_side::system.l2.cpu_side        20480                       # Cumulative packet size per connected master and slave (bytes)
system.tol2bus.pkt_size_system.cpu1.icache.mem_side::system.l2.cpu_side       146368                       # Cumulative packet size per connected master and slave (bytes)
system.tol2bus.pkt_size_system.cpu1.dcache.mem_side::system.l2.cpu_side     22024576                       # Cumulative packet size per connected master and slave (bytes)
system.tol2bus.pkt_size_system.cpu2.icache.mem_side::system.l2.cpu_side       359040                       # Cumulative packet size per connected master and slave (bytes)
system.tol2bus.pkt_size_system.cpu2.dcache.mem_side::system.l2.cpu_side     22668608                       # Cumulative packet size per connected master and slave (bytes)
system.tol2bus.pkt_size::total               45243456                       # Cumulative packet size per connected master and slave (bytes)
system.tol2bus.snoops                         1480326                       # Total snoops (count)
system.tol2bus.snoop_fanout::samples          2570314                       # Request fanout histogram
system.tol2bus.snoop_fanout::mean                   5                       # Request fanout histogram
system.tol2bus.snoop_fanout::stdev                  0                       # Request fanout histogram
system.tol2bus.snoop_fanout::underflows             0      0.00%      0.00% # Request fanout histogram
system.tol2bus.snoop_fanout::0                      0      0.00%      0.00% # Request fanout histogram
system.tol2bus.snoop_fanout::1                      0      0.00%      0.00% # Request fanout histogram
system.tol2bus.snoop_fanout::2                      0      0.00%      0.00% # Request fanout histogram
system.tol2bus.snoop_fanout::3                      0      0.00%      0.00% # Request fanout histogram
system.tol2bus.snoop_fanout::4                      0      0.00%      0.00% # Request fanout histogram
system.tol2bus.snoop_fanout::5                2570314    100.00%    100.00% # Request fanout histogram
system.tol2bus.snoop_fanout::6                      0      0.00%    100.00% # Request fanout histogram
system.tol2bus.snoop_fanout::overflows              0      0.00%    100.00% # Request fanout histogram
system.tol2bus.snoop_fanout::min_value              5                       # Request fanout histogram
system.tol2bus.snoop_fanout::max_value              5                       # Request fanout histogram
system.tol2bus.snoop_fanout::total            2570314                       # Request fanout histogram
system.tol2bus.reqLayer0.occupancy         1619627055                       # Layer occupancy (ticks)
system.tol2bus.reqLayer0.utilization              2.2                       # Layer utilization (%)
system.tol2bus.respLayer0.occupancy            572997                       # Layer occupancy (ticks)
system.tol2bus.respLayer0.utilization             0.0                       # Layer utilization (%)
system.tol2bus.respLayer1.occupancy            475994                       # Layer occupancy (ticks)
system.tol2bus.respLayer1.utilization             0.0                       # Layer utilization (%)
system.tol2bus.respLayer4.occupancy           3448963                       # Layer occupancy (ticks)
system.tol2bus.respLayer4.utilization             0.0                       # Layer utilization (%)
system.tol2bus.respLayer5.occupancy        1207703200                       # Layer occupancy (ticks)
system.tol2bus.respLayer5.utilization             1.7                       # Layer utilization (%)
system.tol2bus.respLayer8.occupancy           8453922                       # Layer occupancy (ticks)
system.tol2bus.respLayer8.utilization             0.0                       # Layer utilization (%)
system.tol2bus.respLayer9.occupancy        1244731986                       # Layer occupancy (ticks)
system.tol2bus.respLayer9.utilization             1.7                       # Layer utilization (%)

---------- End Simulation Statistics   ----------
