
---------- Begin Simulation Statistics ----------
sim_seconds                                  0.017766                       # Number of seconds simulated
sim_ticks                                 17765657000                       # Number of ticks simulated
final_tick                                17765657000                       # Number of ticks from beginning of simulation (restored from checkpoints and never reset)
sim_freq                                 1000000000000                       # Frequency of simulated ticks
host_inst_rate                                 169662                       # Simulator instruction rate (inst/s)
host_op_rate                                   174454                       # Simulator op (including micro ops) rate (op/s)
host_tick_rate                               34595528                       # Simulator tick rate (ticks/s)
host_mem_usage                                 701180                       # Number of bytes of host memory used
host_seconds                                   513.52                       # Real time elapsed on the host
sim_insts                                    87125660                       # Number of instructions simulated
sim_ops                                      89586666                       # Number of ops (including micro ops) simulated
system.voltage_domain.voltage                       1                       # Voltage in Volts
system.clk_domain.clock                          1000                       # Clock period in ticks
system.physmem.bytes_read::cpu0.inst            22400                       # Number of bytes read from this memory
system.physmem.bytes_read::cpu0.data            17856                       # Number of bytes read from this memory
system.physmem.bytes_read::cpu1.inst             4672                       # Number of bytes read from this memory
system.physmem.bytes_read::cpu1.data           162752                       # Number of bytes read from this memory
system.physmem.bytes_read::cpu2.inst             3008                       # Number of bytes read from this memory
system.physmem.bytes_read::cpu2.data           255104                       # Number of bytes read from this memory
system.physmem.bytes_read::cpu3.inst             7296                       # Number of bytes read from this memory
system.physmem.bytes_read::cpu3.data           329472                       # Number of bytes read from this memory
system.physmem.bytes_read::cpu4.inst             4416                       # Number of bytes read from this memory
system.physmem.bytes_read::cpu4.data           246912                       # Number of bytes read from this memory
system.physmem.bytes_read::total              1053888                       # Number of bytes read from this memory
system.physmem.bytes_inst_read::cpu0.inst        22400                       # Number of instructions bytes read from this memory
system.physmem.bytes_inst_read::cpu1.inst         4672                       # Number of instructions bytes read from this memory
system.physmem.bytes_inst_read::cpu2.inst         3008                       # Number of instructions bytes read from this memory
system.physmem.bytes_inst_read::cpu3.inst         7296                       # Number of instructions bytes read from this memory
system.physmem.bytes_inst_read::cpu4.inst         4416                       # Number of instructions bytes read from this memory
system.physmem.bytes_inst_read::total           41792                       # Number of instructions bytes read from this memory
system.physmem.bytes_written::writebacks        19520                       # Number of bytes written to this memory
system.physmem.bytes_written::total             19520                       # Number of bytes written to this memory
system.physmem.num_reads::cpu0.inst               350                       # Number of read requests responded to by this memory
system.physmem.num_reads::cpu0.data               279                       # Number of read requests responded to by this memory
system.physmem.num_reads::cpu1.inst                73                       # Number of read requests responded to by this memory
system.physmem.num_reads::cpu1.data              2543                       # Number of read requests responded to by this memory
system.physmem.num_reads::cpu2.inst                47                       # Number of read requests responded to by this memory
system.physmem.num_reads::cpu2.data              3986                       # Number of read requests responded to by this memory
system.physmem.num_reads::cpu3.inst               114                       # Number of read requests responded to by this memory
system.physmem.num_reads::cpu3.data              5148                       # Number of read requests responded to by this memory
system.physmem.num_reads::cpu4.inst                69                       # Number of read requests responded to by this memory
system.physmem.num_reads::cpu4.data              3858                       # Number of read requests responded to by this memory
system.physmem.num_reads::total                 16467                       # Number of read requests responded to by this memory
system.physmem.num_writes::writebacks             305                       # Number of write requests responded to by this memory
system.physmem.num_writes::total                  305                       # Number of write requests responded to by this memory
system.physmem.bw_read::cpu0.inst             1260860                       # Total read bandwidth from this memory (bytes/s)
system.physmem.bw_read::cpu0.data             1005085                       # Total read bandwidth from this memory (bytes/s)
system.physmem.bw_read::cpu1.inst              262979                       # Total read bandwidth from this memory (bytes/s)
system.physmem.bw_read::cpu1.data             9161046                       # Total read bandwidth from this memory (bytes/s)
system.physmem.bw_read::cpu2.inst              169315                       # Total read bandwidth from this memory (bytes/s)
system.physmem.bw_read::cpu2.data            14359390                       # Total read bandwidth from this memory (bytes/s)
system.physmem.bw_read::cpu3.inst              410680                       # Total read bandwidth from this memory (bytes/s)
system.physmem.bw_read::cpu3.data            18545444                       # Total read bandwidth from this memory (bytes/s)
system.physmem.bw_read::cpu4.inst              248569                       # Total read bandwidth from this memory (bytes/s)
system.physmem.bw_read::cpu4.data            13898276                       # Total read bandwidth from this memory (bytes/s)
system.physmem.bw_read::total                59321645                       # Total read bandwidth from this memory (bytes/s)
system.physmem.bw_inst_read::cpu0.inst        1260860                       # Instruction read bandwidth from this memory (bytes/s)
system.physmem.bw_inst_read::cpu1.inst         262979                       # Instruction read bandwidth from this memory (bytes/s)
system.physmem.bw_inst_read::cpu2.inst         169315                       # Instruction read bandwidth from this memory (bytes/s)
system.physmem.bw_inst_read::cpu3.inst         410680                       # Instruction read bandwidth from this memory (bytes/s)
system.physmem.bw_inst_read::cpu4.inst         248569                       # Instruction read bandwidth from this memory (bytes/s)
system.physmem.bw_inst_read::total            2352404                       # Instruction read bandwidth from this memory (bytes/s)
system.physmem.bw_write::writebacks           1098749                       # Write bandwidth from this memory (bytes/s)
system.physmem.bw_write::total                1098749                       # Write bandwidth from this memory (bytes/s)
system.physmem.bw_total::writebacks           1098749                       # Total bandwidth to/from this memory (bytes/s)
system.physmem.bw_total::cpu0.inst            1260860                       # Total bandwidth to/from this memory (bytes/s)
system.physmem.bw_total::cpu0.data            1005085                       # Total bandwidth to/from this memory (bytes/s)
system.physmem.bw_total::cpu1.inst             262979                       # Total bandwidth to/from this memory (bytes/s)
system.physmem.bw_total::cpu1.data            9161046                       # Total bandwidth to/from this memory (bytes/s)
system.physmem.bw_total::cpu2.inst             169315                       # Total bandwidth to/from this memory (bytes/s)
system.physmem.bw_total::cpu2.data           14359390                       # Total bandwidth to/from this memory (bytes/s)
system.physmem.bw_total::cpu3.inst             410680                       # Total bandwidth to/from this memory (bytes/s)
system.physmem.bw_total::cpu3.data           18545444                       # Total bandwidth to/from this memory (bytes/s)
system.physmem.bw_total::cpu4.inst             248569                       # Total bandwidth to/from this memory (bytes/s)
system.physmem.bw_total::cpu4.data           13898276                       # Total bandwidth to/from this memory (bytes/s)
system.physmem.bw_total::total               60420394                       # Total bandwidth to/from this memory (bytes/s)
system.cpu0.branchPred.lookups                8871686                       # Number of BP lookups
system.cpu0.branchPred.condPredicted          8870782                       # Number of conditional branches predicted
system.cpu0.branchPred.condIncorrect              582                       # Number of conditional branches incorrect
system.cpu0.branchPred.BTBLookups             8870031                       # Number of BTB lookups
system.cpu0.branchPred.BTBHits                8869641                       # Number of BTB hits
system.cpu0.branchPred.BTBCorrect                   0                       # Number of correct BTB predictions (this stat may not work properly.
system.cpu0.branchPred.BTBHitPct            99.995603                       # BTB Hit Percentage
system.cpu0.branchPred.usedRAS                    286                       # Number of times the RAS was used to get a target.
system.cpu0.branchPred.RASInCorrect                55                       # Number of incorrect RAS predictions.
system.cpu0.dstage2_mmu.stage2_tlb.walker.walks            0                       # Table walker walks requested
system.cpu0.dstage2_mmu.stage2_tlb.walker.walkRequestOrigin_Requested::Data            0                       # Table walker requests started/completed, data/inst
system.cpu0.dstage2_mmu.stage2_tlb.walker.walkRequestOrigin_Requested::Inst            0                       # Table walker requests started/completed, data/inst
system.cpu0.dstage2_mmu.stage2_tlb.walker.walkRequestOrigin_Requested::total            0                       # Table walker requests started/completed, data/inst
system.cpu0.dstage2_mmu.stage2_tlb.walker.walkRequestOrigin_Completed::Data            0                       # Table walker requests started/completed, data/inst
system.cpu0.dstage2_mmu.stage2_tlb.walker.walkRequestOrigin_Completed::Inst            0                       # Table walker requests started/completed, data/inst
system.cpu0.dstage2_mmu.stage2_tlb.walker.walkRequestOrigin_Completed::total            0                       # Table walker requests started/completed, data/inst
system.cpu0.dstage2_mmu.stage2_tlb.walker.walkRequestOrigin::total            0                       # Table walker requests started/completed, data/inst
system.cpu0.dstage2_mmu.stage2_tlb.inst_hits            0                       # ITB inst hits
system.cpu0.dstage2_mmu.stage2_tlb.inst_misses            0                       # ITB inst misses
system.cpu0.dstage2_mmu.stage2_tlb.read_hits            0                       # DTB read hits
system.cpu0.dstage2_mmu.stage2_tlb.read_misses            0                       # DTB read misses
system.cpu0.dstage2_mmu.stage2_tlb.write_hits            0                       # DTB write hits
system.cpu0.dstage2_mmu.stage2_tlb.write_misses            0                       # DTB write misses
system.cpu0.dstage2_mmu.stage2_tlb.flush_tlb            0                       # Number of times complete TLB was flushed
system.cpu0.dstage2_mmu.stage2_tlb.flush_tlb_mva            0                       # Number of times TLB was flushed by MVA
system.cpu0.dstage2_mmu.stage2_tlb.flush_tlb_mva_asid            0                       # Number of times TLB was flushed by MVA & ASID
system.cpu0.dstage2_mmu.stage2_tlb.flush_tlb_asid            0                       # Number of times TLB was flushed by ASID
system.cpu0.dstage2_mmu.stage2_tlb.flush_entries            0                       # Number of entries that have been flushed from TLB
system.cpu0.dstage2_mmu.stage2_tlb.align_faults            0                       # Number of TLB faults due to alignment restrictions
system.cpu0.dstage2_mmu.stage2_tlb.prefetch_faults            0                       # Number of TLB faults due to prefetch
system.cpu0.dstage2_mmu.stage2_tlb.domain_faults            0                       # Number of TLB faults due to domain restrictions
system.cpu0.dstage2_mmu.stage2_tlb.perms_faults            0                       # Number of TLB faults due to permissions restrictions
system.cpu0.dstage2_mmu.stage2_tlb.read_accesses            0                       # DTB read accesses
system.cpu0.dstage2_mmu.stage2_tlb.write_accesses            0                       # DTB write accesses
system.cpu0.dstage2_mmu.stage2_tlb.inst_accesses            0                       # ITB inst accesses
system.cpu0.dstage2_mmu.stage2_tlb.hits             0                       # DTB hits
system.cpu0.dstage2_mmu.stage2_tlb.misses            0                       # DTB misses
system.cpu0.dstage2_mmu.stage2_tlb.accesses            0                       # DTB accesses
system.cpu0.dtb.walker.walks                        0                       # Table walker walks requested
system.cpu0.dtb.walker.walkRequestOrigin_Requested::Data            0                       # Table walker requests started/completed, data/inst
system.cpu0.dtb.walker.walkRequestOrigin_Requested::Inst            0                       # Table walker requests started/completed, data/inst
system.cpu0.dtb.walker.walkRequestOrigin_Requested::total            0                       # Table walker requests started/completed, data/inst
system.cpu0.dtb.walker.walkRequestOrigin_Completed::Data            0                       # Table walker requests started/completed, data/inst
system.cpu0.dtb.walker.walkRequestOrigin_Completed::Inst            0                       # Table walker requests started/completed, data/inst
system.cpu0.dtb.walker.walkRequestOrigin_Completed::total            0                       # Table walker requests started/completed, data/inst
system.cpu0.dtb.walker.walkRequestOrigin::total            0                       # Table walker requests started/completed, data/inst
system.cpu0.dtb.inst_hits                           0                       # ITB inst hits
system.cpu0.dtb.inst_misses                         0                       # ITB inst misses
system.cpu0.dtb.read_hits                           0                       # DTB read hits
system.cpu0.dtb.read_misses                         0                       # DTB read misses
system.cpu0.dtb.write_hits                          0                       # DTB write hits
system.cpu0.dtb.write_misses                        0                       # DTB write misses
system.cpu0.dtb.flush_tlb                           0                       # Number of times complete TLB was flushed
system.cpu0.dtb.flush_tlb_mva                       0                       # Number of times TLB was flushed by MVA
system.cpu0.dtb.flush_tlb_mva_asid                  0                       # Number of times TLB was flushed by MVA & ASID
system.cpu0.dtb.flush_tlb_asid                      0                       # Number of times TLB was flushed by ASID
system.cpu0.dtb.flush_entries                       0                       # Number of entries that have been flushed from TLB
system.cpu0.dtb.align_faults                        0                       # Number of TLB faults due to alignment restrictions
system.cpu0.dtb.prefetch_faults                     0                       # Number of TLB faults due to prefetch
system.cpu0.dtb.domain_faults                       0                       # Number of TLB faults due to domain restrictions
system.cpu0.dtb.perms_faults                        0                       # Number of TLB faults due to permissions restrictions
system.cpu0.dtb.read_accesses                       0                       # DTB read accesses
system.cpu0.dtb.write_accesses                      0                       # DTB write accesses
system.cpu0.dtb.inst_accesses                       0                       # ITB inst accesses
system.cpu0.dtb.hits                                0                       # DTB hits
system.cpu0.dtb.misses                              0                       # DTB misses
system.cpu0.dtb.accesses                            0                       # DTB accesses
system.cpu0.istage2_mmu.stage2_tlb.walker.walks            0                       # Table walker walks requested
system.cpu0.istage2_mmu.stage2_tlb.walker.walkRequestOrigin_Requested::Data            0                       # Table walker requests started/completed, data/inst
system.cpu0.istage2_mmu.stage2_tlb.walker.walkRequestOrigin_Requested::Inst            0                       # Table walker requests started/completed, data/inst
system.cpu0.istage2_mmu.stage2_tlb.walker.walkRequestOrigin_Requested::total            0                       # Table walker requests started/completed, data/inst
system.cpu0.istage2_mmu.stage2_tlb.walker.walkRequestOrigin_Completed::Data            0                       # Table walker requests started/completed, data/inst
system.cpu0.istage2_mmu.stage2_tlb.walker.walkRequestOrigin_Completed::Inst            0                       # Table walker requests started/completed, data/inst
system.cpu0.istage2_mmu.stage2_tlb.walker.walkRequestOrigin_Completed::total            0                       # Table walker requests started/completed, data/inst
system.cpu0.istage2_mmu.stage2_tlb.walker.walkRequestOrigin::total            0                       # Table walker requests started/completed, data/inst
system.cpu0.istage2_mmu.stage2_tlb.inst_hits            0                       # ITB inst hits
system.cpu0.istage2_mmu.stage2_tlb.inst_misses            0                       # ITB inst misses
system.cpu0.istage2_mmu.stage2_tlb.read_hits            0                       # DTB read hits
system.cpu0.istage2_mmu.stage2_tlb.read_misses            0                       # DTB read misses
system.cpu0.istage2_mmu.stage2_tlb.write_hits            0                       # DTB write hits
system.cpu0.istage2_mmu.stage2_tlb.write_misses            0                       # DTB write misses
system.cpu0.istage2_mmu.stage2_tlb.flush_tlb            0                       # Number of times complete TLB was flushed
system.cpu0.istage2_mmu.stage2_tlb.flush_tlb_mva            0                       # Number of times TLB was flushed by MVA
system.cpu0.istage2_mmu.stage2_tlb.flush_tlb_mva_asid            0                       # Number of times TLB was flushed by MVA & ASID
system.cpu0.istage2_mmu.stage2_tlb.flush_tlb_asid            0                       # Number of times TLB was flushed by ASID
system.cpu0.istage2_mmu.stage2_tlb.flush_entries            0                       # Number of entries that have been flushed from TLB
system.cpu0.istage2_mmu.stage2_tlb.align_faults            0                       # Number of TLB faults due to alignment restrictions
system.cpu0.istage2_mmu.stage2_tlb.prefetch_faults            0                       # Number of TLB faults due to prefetch
system.cpu0.istage2_mmu.stage2_tlb.domain_faults            0                       # Number of TLB faults due to domain restrictions
system.cpu0.istage2_mmu.stage2_tlb.perms_faults            0                       # Number of TLB faults due to permissions restrictions
system.cpu0.istage2_mmu.stage2_tlb.read_accesses            0                       # DTB read accesses
system.cpu0.istage2_mmu.stage2_tlb.write_accesses            0                       # DTB write accesses
system.cpu0.istage2_mmu.stage2_tlb.inst_accesses            0                       # ITB inst accesses
system.cpu0.istage2_mmu.stage2_tlb.hits             0                       # DTB hits
system.cpu0.istage2_mmu.stage2_tlb.misses            0                       # DTB misses
system.cpu0.istage2_mmu.stage2_tlb.accesses            0                       # DTB accesses
system.cpu0.itb.walker.walks                        0                       # Table walker walks requested
system.cpu0.itb.walker.walkRequestOrigin_Requested::Data            0                       # Table walker requests started/completed, data/inst
system.cpu0.itb.walker.walkRequestOrigin_Requested::Inst            0                       # Table walker requests started/completed, data/inst
system.cpu0.itb.walker.walkRequestOrigin_Requested::total            0                       # Table walker requests started/completed, data/inst
system.cpu0.itb.walker.walkRequestOrigin_Completed::Data            0                       # Table walker requests started/completed, data/inst
system.cpu0.itb.walker.walkRequestOrigin_Completed::Inst            0                       # Table walker requests started/completed, data/inst
system.cpu0.itb.walker.walkRequestOrigin_Completed::total            0                       # Table walker requests started/completed, data/inst
system.cpu0.itb.walker.walkRequestOrigin::total            0                       # Table walker requests started/completed, data/inst
system.cpu0.itb.inst_hits                           0                       # ITB inst hits
system.cpu0.itb.inst_misses                         0                       # ITB inst misses
system.cpu0.itb.read_hits                           0                       # DTB read hits
system.cpu0.itb.read_misses                         0                       # DTB read misses
system.cpu0.itb.write_hits                          0                       # DTB write hits
system.cpu0.itb.write_misses                        0                       # DTB write misses
system.cpu0.itb.flush_tlb                           0                       # Number of times complete TLB was flushed
system.cpu0.itb.flush_tlb_mva                       0                       # Number of times TLB was flushed by MVA
system.cpu0.itb.flush_tlb_mva_asid                  0                       # Number of times TLB was flushed by MVA & ASID
system.cpu0.itb.flush_tlb_asid                      0                       # Number of times TLB was flushed by ASID
system.cpu0.itb.flush_entries                       0                       # Number of entries that have been flushed from TLB
system.cpu0.itb.align_faults                        0                       # Number of TLB faults due to alignment restrictions
system.cpu0.itb.prefetch_faults                     0                       # Number of TLB faults due to prefetch
system.cpu0.itb.domain_faults                       0                       # Number of TLB faults due to domain restrictions
system.cpu0.itb.perms_faults                        0                       # Number of TLB faults due to permissions restrictions
system.cpu0.itb.read_accesses                       0                       # DTB read accesses
system.cpu0.itb.write_accesses                      0                       # DTB write accesses
system.cpu0.itb.inst_accesses                       0                       # ITB inst accesses
system.cpu0.itb.hits                                0                       # DTB hits
system.cpu0.itb.misses                              0                       # DTB misses
system.cpu0.itb.accesses                            0                       # DTB accesses
system.cpu0.workload.num_syscalls               26313                       # Number of system calls
system.cpu0.numCycles                        17765658                       # number of cpu cycles simulated
system.cpu0.numWorkItemsStarted                     0                       # number of work items this cpu started
system.cpu0.numWorkItemsCompleted                   0                       # number of work items this cpu completed
system.cpu0.fetch.icacheStallCycles              8301                       # Number of cycles fetch is stalled on an Icache miss
system.cpu0.fetch.Insts                      44359386                       # Number of instructions fetch has processed
system.cpu0.fetch.Branches                    8871686                       # Number of branches that fetch encountered
system.cpu0.fetch.predictedBranches           8869927                       # Number of branches that fetch has predicted taken
system.cpu0.fetch.Cycles                     17748390                       # Number of cycles fetch has run and was not squashing or blocked
system.cpu0.fetch.SquashCycles                   1289                       # Number of cycles fetch has spent squashing
system.cpu0.fetch.PendingTrapStallCycles          148                       # Number of stall cycles due to pending traps
system.cpu0.fetch.CacheLines                     1996                       # Number of cache lines fetched
system.cpu0.fetch.IcacheSquashes                  250                       # Number of outstanding Icache misses that were squashed
system.cpu0.fetch.rateDist::samples          17757483                       # Number of instructions fetched each cycle (Total)
system.cpu0.fetch.rateDist::mean             2.498313                       # Number of instructions fetched each cycle (Total)
system.cpu0.fetch.rateDist::stdev            0.504320                       # Number of instructions fetched each cycle (Total)
system.cpu0.fetch.rateDist::underflows              0      0.00%      0.00% # Number of instructions fetched each cycle (Total)
system.cpu0.fetch.rateDist::0                   12629      0.07%      0.07% # Number of instructions fetched each cycle (Total)
system.cpu0.fetch.rateDist::1                     658      0.00%      0.07% # Number of instructions fetched each cycle (Total)
system.cpu0.fetch.rateDist::2                 8869489     49.95%     50.02% # Number of instructions fetched each cycle (Total)
system.cpu0.fetch.rateDist::3                 8874707     49.98%    100.00% # Number of instructions fetched each cycle (Total)
system.cpu0.fetch.rateDist::overflows               0      0.00%    100.00% # Number of instructions fetched each cycle (Total)
system.cpu0.fetch.rateDist::min_value               0                       # Number of instructions fetched each cycle (Total)
system.cpu0.fetch.rateDist::max_value               3                       # Number of instructions fetched each cycle (Total)
system.cpu0.fetch.rateDist::total            17757483                       # Number of instructions fetched each cycle (Total)
system.cpu0.fetch.branchRate                 0.499373                       # Number of branch fetches per cycle
system.cpu0.fetch.rate                       2.496918                       # Number of inst fetches per cycle
system.cpu0.decode.IdleCycles                    7770                       # Number of cycles decode is idle
system.cpu0.decode.BlockedCycles                 5394                       # Number of cycles decode is blocked
system.cpu0.decode.RunCycles                 17743218                       # Number of cycles decode is running
system.cpu0.decode.UnblockCycles                  652                       # Number of cycles decode is unblocking
system.cpu0.decode.SquashCycles                   449                       # Number of cycles decode is squashing
system.cpu0.decode.BranchResolved                 373                       # Number of times decode resolved a branch
system.cpu0.decode.BranchMispred                  202                       # Number of times decode detected a branch misprediction
system.cpu0.decode.DecodedInsts              44361213                       # Number of instructions handled by decode
system.cpu0.decode.SquashedInsts                  480                       # Number of squashed instructions handled by decode
system.cpu0.rename.SquashCycles                   449                       # Number of cycles rename is squashing
system.cpu0.rename.IdleCycles                    8349                       # Number of cycles rename is idle
system.cpu0.rename.BlockCycles                    598                       # Number of cycles rename is blocking
system.cpu0.rename.serializeStallCycles          2067                       # count of cycles rename stalled for serializing inst
system.cpu0.rename.RunCycles                 17743179                       # Number of cycles rename is running
system.cpu0.rename.UnblockCycles                 2841                       # Number of cycles rename is unblocking
system.cpu0.rename.RenamedInsts              44360510                       # Number of instructions processed by rename
system.cpu0.rename.IQFullEvents                    17                       # Number of times rename has blocked due to IQ full
system.cpu0.rename.LQFullEvents                    11                       # Number of times rename has blocked due to LQ full
system.cpu0.rename.SQFullEvents                  2671                       # Number of times rename has blocked due to SQ full
system.cpu0.rename.RenamedOperands           44362012                       # Number of destination operands rename has renamed
system.cpu0.rename.RenameLookups            204062945                       # Number of register rename lookups that rename has made
system.cpu0.rename.int_rename_lookups        44365755                       # Number of integer rename lookups
system.cpu0.rename.fp_rename_lookups               16                       # Number of floating rename lookups
system.cpu0.rename.CommittedMaps             44356103                       # Number of HB maps that are committed
system.cpu0.rename.UndoneMaps                    5909                       # Number of HB maps that are undone due to squashing
system.cpu0.rename.serializingInsts                52                       # count of serializing insts renamed
system.cpu0.rename.tempSerializingInsts            51                       # count of temporary serializing insts renamed
system.cpu0.rename.skidInsts                     1231                       # count of insts added to the skid buffer
system.cpu0.memDep0.insertedLoads            17739524                       # Number of loads inserted to the mem dependence unit.
system.cpu0.memDep0.insertedStores            8872351                       # Number of stores inserted to the mem dependence unit.
system.cpu0.memDep0.conflictingLoads          8868473                       # Number of conflicting loads.
system.cpu0.memDep0.conflictingStores         8868444                       # Number of conflicting stores.
system.cpu0.iq.iqInstsAdded                  44359148                       # Number of instructions added to the IQ (excludes non-spec)
system.cpu0.iq.iqNonSpecInstsAdded                 74                       # Number of non-speculative instructions added to the IQ
system.cpu0.iq.iqInstsIssued                 44357514                       # Number of instructions issued
system.cpu0.iq.iqSquashedInstsIssued              169                       # Number of squashed instructions issued
system.cpu0.iq.iqSquashedInstsExamined           4123                       # Number of squashed instructions iterated over during squash; mainly for profiling
system.cpu0.iq.iqSquashedOperandsExamined        10215                       # Number of squashed operands that are examined and possibly removed from graph
system.cpu0.iq.iqSquashedNonSpecRemoved             5                       # Number of squashed non-spec instructions that were removed
system.cpu0.iq.issued_per_cycle::samples     17757483                       # Number of insts issued each cycle
system.cpu0.iq.issued_per_cycle::mean        2.497962                       # Number of insts issued each cycle
system.cpu0.iq.issued_per_cycle::stdev       0.710229                       # Number of insts issued each cycle
system.cpu0.iq.issued_per_cycle::underflows            0      0.00%      0.00% # Number of insts issued each cycle
system.cpu0.iq.issued_per_cycle::0              12999      0.07%      0.07% # Number of insts issued each cycle
system.cpu0.iq.issued_per_cycle::1            2220017     12.50%     12.58% # Number of insts issued each cycle
system.cpu0.iq.issued_per_cycle::2            4435904     24.98%     37.56% # Number of insts issued each cycle
system.cpu0.iq.issued_per_cycle::3           11088563     62.44%    100.00% # Number of insts issued each cycle
system.cpu0.iq.issued_per_cycle::overflows            0      0.00%    100.00% # Number of insts issued each cycle
system.cpu0.iq.issued_per_cycle::min_value            0                       # Number of insts issued each cycle
system.cpu0.iq.issued_per_cycle::max_value            3                       # Number of insts issued each cycle
system.cpu0.iq.issued_per_cycle::total       17757483                       # Number of insts issued each cycle
system.cpu0.iq.fu_full::No_OpClass                  0                       # attempts to use FU when none available
system.cpu0.iq.fu_full::IntAlu                      0                       # attempts to use FU when none available
system.cpu0.iq.fu_full::IntMult                     0                       # attempts to use FU when none available
system.cpu0.iq.fu_full::IntDiv                      0                       # attempts to use FU when none available
system.cpu0.iq.fu_full::FloatAdd                    0                       # attempts to use FU when none available
system.cpu0.iq.fu_full::FloatCmp                    0                       # attempts to use FU when none available
system.cpu0.iq.fu_full::FloatCvt                    0                       # attempts to use FU when none available
system.cpu0.iq.fu_full::FloatMult                   0                       # attempts to use FU when none available
system.cpu0.iq.fu_full::FloatDiv                    0                       # attempts to use FU when none available
system.cpu0.iq.fu_full::FloatSqrt                   0                       # attempts to use FU when none available
system.cpu0.iq.fu_full::SimdAdd                     0                       # attempts to use FU when none available
system.cpu0.iq.fu_full::SimdAddAcc                  0                       # attempts to use FU when none available
system.cpu0.iq.fu_full::SimdAlu                     0                       # attempts to use FU when none available
system.cpu0.iq.fu_full::SimdCmp                     0                       # attempts to use FU when none available
system.cpu0.iq.fu_full::SimdCvt                     0                       # attempts to use FU when none available
system.cpu0.iq.fu_full::SimdMisc                    0                       # attempts to use FU when none available
system.cpu0.iq.fu_full::SimdMult                    0                       # attempts to use FU when none available
system.cpu0.iq.fu_full::SimdMultAcc                 0                       # attempts to use FU when none available
system.cpu0.iq.fu_full::SimdShift                   0                       # attempts to use FU when none available
system.cpu0.iq.fu_full::SimdShiftAcc                0                       # attempts to use FU when none available
system.cpu0.iq.fu_full::SimdSqrt                    0                       # attempts to use FU when none available
system.cpu0.iq.fu_full::SimdFloatAdd                0                       # attempts to use FU when none available
system.cpu0.iq.fu_full::SimdFloatAlu                0                       # attempts to use FU when none available
system.cpu0.iq.fu_full::SimdFloatCmp                0                       # attempts to use FU when none available
system.cpu0.iq.fu_full::SimdFloatCvt                0                       # attempts to use FU when none available
system.cpu0.iq.fu_full::SimdFloatDiv                0                       # attempts to use FU when none available
system.cpu0.iq.fu_full::SimdFloatMisc               0                       # attempts to use FU when none available
system.cpu0.iq.fu_full::SimdFloatMult               0                       # attempts to use FU when none available
system.cpu0.iq.fu_full::SimdFloatMultAcc            0                       # attempts to use FU when none available
system.cpu0.iq.fu_full::SimdFloatSqrt               0                       # attempts to use FU when none available
system.cpu0.iq.fu_full::MemRead                     0                       # attempts to use FU when none available
system.cpu0.iq.fu_full::MemWrite                    0                       # attempts to use FU when none available
system.cpu0.iq.fu_full::IprAccess                   0                       # attempts to use FU when none available
system.cpu0.iq.fu_full::InstPrefetch                0                       # attempts to use FU when none available
system.cpu0.iq.FU_type_0::No_OpClass                0      0.00%      0.00% # Type of FU issued
system.cpu0.iq.FU_type_0::IntAlu             17746132     40.01%     40.01% # Type of FU issued
system.cpu0.iq.FU_type_0::IntMult                   6      0.00%     40.01% # Type of FU issued
system.cpu0.iq.FU_type_0::IntDiv                    0      0.00%     40.01% # Type of FU issued
system.cpu0.iq.FU_type_0::FloatAdd                  0      0.00%     40.01% # Type of FU issued
system.cpu0.iq.FU_type_0::FloatCmp                  0      0.00%     40.01% # Type of FU issued
system.cpu0.iq.FU_type_0::FloatCvt                  0      0.00%     40.01% # Type of FU issued
system.cpu0.iq.FU_type_0::FloatMult                 0      0.00%     40.01% # Type of FU issued
system.cpu0.iq.FU_type_0::FloatDiv                  0      0.00%     40.01% # Type of FU issued
system.cpu0.iq.FU_type_0::FloatSqrt                 0      0.00%     40.01% # Type of FU issued
system.cpu0.iq.FU_type_0::SimdAdd                   0      0.00%     40.01% # Type of FU issued
system.cpu0.iq.FU_type_0::SimdAddAcc                0      0.00%     40.01% # Type of FU issued
system.cpu0.iq.FU_type_0::SimdAlu                   0      0.00%     40.01% # Type of FU issued
system.cpu0.iq.FU_type_0::SimdCmp                   0      0.00%     40.01% # Type of FU issued
system.cpu0.iq.FU_type_0::SimdCvt                   0      0.00%     40.01% # Type of FU issued
system.cpu0.iq.FU_type_0::SimdMisc                  0      0.00%     40.01% # Type of FU issued
system.cpu0.iq.FU_type_0::SimdMult                  0      0.00%     40.01% # Type of FU issued
system.cpu0.iq.FU_type_0::SimdMultAcc               0      0.00%     40.01% # Type of FU issued
system.cpu0.iq.FU_type_0::SimdShift                 0      0.00%     40.01% # Type of FU issued
system.cpu0.iq.FU_type_0::SimdShiftAcc              0      0.00%     40.01% # Type of FU issued
system.cpu0.iq.FU_type_0::SimdSqrt                  0      0.00%     40.01% # Type of FU issued
system.cpu0.iq.FU_type_0::SimdFloatAdd              0      0.00%     40.01% # Type of FU issued
system.cpu0.iq.FU_type_0::SimdFloatAlu              0      0.00%     40.01% # Type of FU issued
system.cpu0.iq.FU_type_0::SimdFloatCmp              0      0.00%     40.01% # Type of FU issued
system.cpu0.iq.FU_type_0::SimdFloatCvt              0      0.00%     40.01% # Type of FU issued
system.cpu0.iq.FU_type_0::SimdFloatDiv              0      0.00%     40.01% # Type of FU issued
system.cpu0.iq.FU_type_0::SimdFloatMisc             3      0.00%     40.01% # Type of FU issued
system.cpu0.iq.FU_type_0::SimdFloatMult             0      0.00%     40.01% # Type of FU issued
system.cpu0.iq.FU_type_0::SimdFloatMultAcc            0      0.00%     40.01% # Type of FU issued
system.cpu0.iq.FU_type_0::SimdFloatSqrt             0      0.00%     40.01% # Type of FU issued
system.cpu0.iq.FU_type_0::MemRead            17739219     39.99%     80.00% # Type of FU issued
system.cpu0.iq.FU_type_0::MemWrite            8872154     20.00%    100.00% # Type of FU issued
system.cpu0.iq.FU_type_0::IprAccess                 0      0.00%    100.00% # Type of FU issued
system.cpu0.iq.FU_type_0::InstPrefetch              0      0.00%    100.00% # Type of FU issued
system.cpu0.iq.FU_type_0::total              44357514                       # Type of FU issued
system.cpu0.iq.rate                          2.496812                       # Inst issue rate
system.cpu0.iq.fu_busy_cnt                          0                       # FU busy when requested
system.cpu0.iq.fu_busy_rate                         0                       # FU busy rate (busy events/executed inst)
system.cpu0.iq.int_inst_queue_reads         106472648                       # Number of integer instruction queue reads
system.cpu0.iq.int_inst_queue_writes         44363375                       # Number of integer instruction queue writes
system.cpu0.iq.int_inst_queue_wakeup_accesses     44356786                       # Number of integer instruction queue wakeup accesses
system.cpu0.iq.fp_inst_queue_reads                 32                       # Number of floating instruction queue reads
system.cpu0.iq.fp_inst_queue_writes                16                       # Number of floating instruction queue writes
system.cpu0.iq.fp_inst_queue_wakeup_accesses           16                       # Number of floating instruction queue wakeup accesses
system.cpu0.iq.int_alu_accesses              44357498                       # Number of integer alu accesses
system.cpu0.iq.fp_alu_accesses                     16                       # Number of floating point alu accesses
system.cpu0.iew.lsq.thread0.forwLoads         8868533                       # Number of loads that had data forwarded from stores
system.cpu0.iew.lsq.thread0.invAddrLoads            0                       # Number of loads ignored due to an invalid address
system.cpu0.iew.lsq.thread0.squashedLoads         1074                       # Number of loads squashed
system.cpu0.iew.lsq.thread0.ignoredResponses            3                       # Number of memory responses ignored because the instruction is squashed
system.cpu0.iew.lsq.thread0.memOrderViolation           46                       # Number of memory ordering violations
system.cpu0.iew.lsq.thread0.squashedStores          391                       # Number of stores squashed
system.cpu0.iew.lsq.thread0.invAddrSwpfs            0                       # Number of software prefetches ignored due to an invalid address
system.cpu0.iew.lsq.thread0.blockedLoads            0                       # Number of blocked loads due to partial load-store forwarding
system.cpu0.iew.lsq.thread0.rescheduledLoads            5                       # Number of loads that were rescheduled
system.cpu0.iew.lsq.thread0.cacheBlocked            0                       # Number of times an access to memory failed due to the cache being blocked
system.cpu0.iew.iewIdleCycles                       0                       # Number of cycles IEW is idle
system.cpu0.iew.iewSquashCycles                   449                       # Number of cycles IEW is squashing
system.cpu0.iew.iewBlockCycles                    460                       # Number of cycles IEW is blocking
system.cpu0.iew.iewUnblockCycles                  137                       # Number of cycles IEW is unblocking
system.cpu0.iew.iewDispatchedInsts           44359241                       # Number of instructions dispatched to IQ
system.cpu0.iew.iewDispSquashedInsts              248                       # Number of squashed instructions skipped by dispatch
system.cpu0.iew.iewDispLoadInsts             17739524                       # Number of dispatched load instructions
system.cpu0.iew.iewDispStoreInsts             8872351                       # Number of dispatched store instructions
system.cpu0.iew.iewDispNonSpecInsts                48                       # Number of dispatched non-speculative instructions
system.cpu0.iew.iewIQFullEvents                    12                       # Number of times the IQ has become full, causing a stall
system.cpu0.iew.iewLSQFullEvents                    0                       # Number of times the LSQ has become full, causing a stall
system.cpu0.iew.memOrderViolationEvents            46                       # Number of memory order violations
system.cpu0.iew.predictedTakenIncorrect           114                       # Number of branches that were predicted taken incorrectly
system.cpu0.iew.predictedNotTakenIncorrect          301                       # Number of branches that were predicted not taken incorrectly
system.cpu0.iew.branchMispredicts                 415                       # Number of branch mispredicts detected at execute
system.cpu0.iew.iewExecutedInsts             44357099                       # Number of executed instructions
system.cpu0.iew.iewExecLoadInsts             17739102                       # Number of load instructions executed
system.cpu0.iew.iewExecSquashedInsts              415                       # Number of squashed instructions skipped in execute
system.cpu0.iew.exec_swp                            0                       # number of swp insts executed
system.cpu0.iew.exec_nop                           19                       # number of nop insts executed
system.cpu0.iew.exec_refs                    26611182                       # number of memory reference insts executed
system.cpu0.iew.exec_branches                 8870479                       # Number of branches executed
system.cpu0.iew.exec_forward_branches             855                       # Number of forward branches executed
system.cpu0.iew.exec_backward_branches        8869309                       # Number of backward branches executed
system.cpu0.iew.exec_taken_forward_branches          314                       # Number of forward branches executed that is taken
system.cpu0.iew.exec_nottaken_forward_branches          541                       # Number of forward branches executed that is not taken
system.cpu0.iew.exec_taken_backward_branches      8869069                       # Number of backward branches executed that is taken
system.cpu0.iew.exec_nottaken_backward_branches          240                       # Number of backward branches executed that is not taken
system.cpu0.iew.exec_stores                   8872080                       # Number of stores executed
system.cpu0.iew.exec_rate                    2.496789                       # Inst execution rate
system.cpu0.iew.wb_sent                      44356882                       # cumulative count of insts sent to commit
system.cpu0.iew.wb_count                     44356802                       # cumulative count of insts written-back
system.cpu0.iew.wb_producers                 26611775                       # num instructions producing a value
system.cpu0.iew.wb_consumers                 26621720                       # num instructions consuming a value
system.cpu0.iew.wb_penalized                        0                       # number of instrctions required to write to 'other' IQ
system.cpu0.iew.wb_rate                      2.496772                       # insts written-back per cycle
system.cpu0.iew.wb_fanout                    0.999626                       # average fanout of values written-back
system.cpu0.iew.wb_penalized_rate                   0                       # fraction of instructions written-back that wrote to 'other' IQ
system.cpu0.commit.commitSquashedInsts           4141                       # The number of squashed insts skipped by commit
system.cpu0.commit.commitNonSpecStalls             69                       # The number of times commit has been forced to stall to communicate backwards
system.cpu0.commit.branchMispredicts              387                       # The number of times a branch was mispredicted
system.cpu0.commit.committed_per_cycle::samples     17756720                       # Number of insts commited each cycle
system.cpu0.commit.committed_per_cycle::mean     2.497933                       # Number of insts commited each cycle
system.cpu0.commit.committed_per_cycle::stdev     1.582011                       # Number of insts commited each cycle
system.cpu0.commit.committed_per_cycle::underflows            0      0.00%      0.00% # Number of insts commited each cycle
system.cpu0.commit.committed_per_cycle::0        13868      0.08%      0.08% # Number of insts commited each cycle
system.cpu0.commit.committed_per_cycle::1      8870966     49.96%     50.04% # Number of insts commited each cycle
system.cpu0.commit.committed_per_cycle::2         1166      0.01%     50.04% # Number of insts commited each cycle
system.cpu0.commit.committed_per_cycle::3      2218952     12.50%     62.54% # Number of insts commited each cycle
system.cpu0.commit.committed_per_cycle::4      4434336     24.97%     87.51% # Number of insts commited each cycle
system.cpu0.commit.committed_per_cycle::5      2217214     12.49%    100.00% # Number of insts commited each cycle
system.cpu0.commit.committed_per_cycle::6           74      0.00%    100.00% # Number of insts commited each cycle
system.cpu0.commit.committed_per_cycle::7           65      0.00%    100.00% # Number of insts commited each cycle
system.cpu0.commit.committed_per_cycle::8           79      0.00%    100.00% # Number of insts commited each cycle
system.cpu0.commit.committed_per_cycle::overflows            0      0.00%    100.00% # Number of insts commited each cycle
system.cpu0.commit.committed_per_cycle::min_value            0                       # Number of insts commited each cycle
system.cpu0.commit.committed_per_cycle::max_value            8                       # Number of insts commited each cycle
system.cpu0.commit.committed_per_cycle::total     17756720                       # Number of insts commited each cycle
system.cpu0.commit.committedInsts            44351712                       # Number of instructions committed
system.cpu0.commit.committedOps              44355099                       # Number of ops (including micro ops) committed
system.cpu0.commit.swp_count                        0                       # Number of s/w prefetches committed
system.cpu0.commit.refs                      26610410                       # Number of memory references committed
system.cpu0.commit.loads                     17738450                       # Number of loads committed
system.cpu0.commit.membars                         26                       # Number of memory barriers committed
system.cpu0.commit.branches                   8870157                       # Number of branches committed
system.cpu0.commit.fp_insts                        16                       # Number of committed floating point instructions.
system.cpu0.commit.int_insts                 35485336                       # Number of committed integer instructions.
system.cpu0.commit.function_calls                 156                       # Number of function calls committed.
system.cpu0.commit.op_class_0::No_OpClass            0      0.00%      0.00% # Class of committed instruction
system.cpu0.commit.op_class_0::IntAlu        17744680     40.01%     40.01% # Class of committed instruction
system.cpu0.commit.op_class_0::IntMult              6      0.00%     40.01% # Class of committed instruction
system.cpu0.commit.op_class_0::IntDiv               0      0.00%     40.01% # Class of committed instruction
system.cpu0.commit.op_class_0::FloatAdd             0      0.00%     40.01% # Class of committed instruction
system.cpu0.commit.op_class_0::FloatCmp             0      0.00%     40.01% # Class of committed instruction
system.cpu0.commit.op_class_0::FloatCvt             0      0.00%     40.01% # Class of committed instruction
system.cpu0.commit.op_class_0::FloatMult            0      0.00%     40.01% # Class of committed instruction
system.cpu0.commit.op_class_0::FloatDiv             0      0.00%     40.01% # Class of committed instruction
system.cpu0.commit.op_class_0::FloatSqrt            0      0.00%     40.01% # Class of committed instruction
system.cpu0.commit.op_class_0::SimdAdd              0      0.00%     40.01% # Class of committed instruction
system.cpu0.commit.op_class_0::SimdAddAcc            0      0.00%     40.01% # Class of committed instruction
system.cpu0.commit.op_class_0::SimdAlu              0      0.00%     40.01% # Class of committed instruction
system.cpu0.commit.op_class_0::SimdCmp              0      0.00%     40.01% # Class of committed instruction
system.cpu0.commit.op_class_0::SimdCvt              0      0.00%     40.01% # Class of committed instruction
system.cpu0.commit.op_class_0::SimdMisc             0      0.00%     40.01% # Class of committed instruction
system.cpu0.commit.op_class_0::SimdMult             0      0.00%     40.01% # Class of committed instruction
system.cpu0.commit.op_class_0::SimdMultAcc            0      0.00%     40.01% # Class of committed instruction
system.cpu0.commit.op_class_0::SimdShift            0      0.00%     40.01% # Class of committed instruction
system.cpu0.commit.op_class_0::SimdShiftAcc            0      0.00%     40.01% # Class of committed instruction
system.cpu0.commit.op_class_0::SimdSqrt             0      0.00%     40.01% # Class of committed instruction
system.cpu0.commit.op_class_0::SimdFloatAdd            0      0.00%     40.01% # Class of committed instruction
system.cpu0.commit.op_class_0::SimdFloatAlu            0      0.00%     40.01% # Class of committed instruction
system.cpu0.commit.op_class_0::SimdFloatCmp            0      0.00%     40.01% # Class of committed instruction
system.cpu0.commit.op_class_0::SimdFloatCvt            0      0.00%     40.01% # Class of committed instruction
system.cpu0.commit.op_class_0::SimdFloatDiv            0      0.00%     40.01% # Class of committed instruction
system.cpu0.commit.op_class_0::SimdFloatMisc            3      0.00%     40.01% # Class of committed instruction
system.cpu0.commit.op_class_0::SimdFloatMult            0      0.00%     40.01% # Class of committed instruction
system.cpu0.commit.op_class_0::SimdFloatMultAcc            0      0.00%     40.01% # Class of committed instruction
system.cpu0.commit.op_class_0::SimdFloatSqrt            0      0.00%     40.01% # Class of committed instruction
system.cpu0.commit.op_class_0::MemRead       17738450     39.99%     80.00% # Class of committed instruction
system.cpu0.commit.op_class_0::MemWrite       8871960     20.00%    100.00% # Class of committed instruction
system.cpu0.commit.op_class_0::IprAccess            0      0.00%    100.00% # Class of committed instruction
system.cpu0.commit.op_class_0::InstPrefetch            0      0.00%    100.00% # Class of committed instruction
system.cpu0.commit.op_class_0::total         44355099                       # Class of committed instruction
system.cpu0.commit.bw_lim_events                   79                       # number cycles where commit BW limit reached
system.cpu0.rob.rob_reads                    62115672                       # The number of ROB reads
system.cpu0.rob.rob_writes                   88719247                       # The number of ROB writes
system.cpu0.timesIdled                            248                       # Number of times that the entire CPU went into an idle state and unscheduled itself
system.cpu0.idleCycles                           8175                       # Total number of cycles that the CPU has spent unscheduled due to idling
system.cpu0.committedInsts                   44351712                       # Number of Instructions Simulated
system.cpu0.committedOps                     44355099                       # Number of Ops (including micro ops) Simulated
system.cpu0.cpi                              0.400563                       # CPI: Cycles Per Instruction
system.cpu0.cpi_total                        0.400563                       # CPI: Total CPI of All Threads
system.cpu0.ipc                              2.496486                       # IPC: Instructions Per Cycle
system.cpu0.ipc_total                        2.496486                       # IPC: Total IPC of All Threads
system.cpu0.int_regfile_reads                44359700                       # number of integer regfile reads
system.cpu0.int_regfile_writes               17745078                       # number of integer regfile writes
system.cpu0.fp_regfile_reads                      656                       # number of floating regfile reads
system.cpu0.cc_regfile_reads                186287691                       # number of cc regfile reads
system.cpu0.cc_regfile_writes                26612789                       # number of cc regfile writes
system.cpu0.misc_regfile_reads               27111023                       # number of misc regfile reads
system.cpu0.misc_regfile_writes                    52                       # number of misc regfile writes
system.cpu0.dcache.tags.replacements               35                       # number of replacements
system.cpu0.dcache.tags.tagsinuse          147.411754                       # Cycle average of tags in use
system.cpu0.dcache.tags.total_refs           17739571                       # Total number of references to valid blocks.
system.cpu0.dcache.tags.sampled_refs              201                       # Sample count of references to valid blocks.
system.cpu0.dcache.tags.avg_refs         88256.572139                       # Average number of references to valid blocks.
system.cpu0.dcache.tags.warmup_cycle                0                       # Cycle when the warmup percentage was hit.
system.cpu0.dcache.tags.occ_blocks::cpu0.data   147.411754                       # Average occupied blocks per requestor
system.cpu0.dcache.tags.occ_percent::cpu0.data     0.287914                       # Average percentage of cache occupancy
system.cpu0.dcache.tags.occ_percent::total     0.287914                       # Average percentage of cache occupancy
system.cpu0.dcache.tags.occ_task_id_blocks::1024          166                       # Occupied blocks per task id
system.cpu0.dcache.tags.age_task_id_blocks_1024::0           24                       # Occupied blocks per task id
system.cpu0.dcache.tags.age_task_id_blocks_1024::4          142                       # Occupied blocks per task id
system.cpu0.dcache.tags.occ_task_id_percent::1024     0.324219                       # Percentage of cache occupancy per task id
system.cpu0.dcache.tags.tag_accesses         35485017                       # Number of tag accesses
system.cpu0.dcache.tags.data_accesses        35485017                       # Number of data accesses
system.cpu0.dcache.ReadReq_hits::cpu0.data      8870191                       # number of ReadReq hits
system.cpu0.dcache.ReadReq_hits::total        8870191                       # number of ReadReq hits
system.cpu0.dcache.WriteReq_hits::cpu0.data      8869500                       # number of WriteReq hits
system.cpu0.dcache.WriteReq_hits::total       8869500                       # number of WriteReq hits
system.cpu0.dcache.LoadLockedReq_hits::cpu0.data           22                       # number of LoadLockedReq hits
system.cpu0.dcache.LoadLockedReq_hits::total           22                       # number of LoadLockedReq hits
system.cpu0.dcache.StoreCondReq_hits::cpu0.data           24                       # number of StoreCondReq hits
system.cpu0.dcache.StoreCondReq_hits::total           24                       # number of StoreCondReq hits
system.cpu0.dcache.demand_hits::cpu0.data     17739691                       # number of demand (read+write) hits
system.cpu0.dcache.demand_hits::total        17739691                       # number of demand (read+write) hits
system.cpu0.dcache.overall_hits::cpu0.data     17739691                       # number of overall hits
system.cpu0.dcache.overall_hits::total       17739691                       # number of overall hits
system.cpu0.dcache.ReadReq_misses::cpu0.data          218                       # number of ReadReq misses
system.cpu0.dcache.ReadReq_misses::total          218                       # number of ReadReq misses
system.cpu0.dcache.WriteReq_misses::cpu0.data         2388                       # number of WriteReq misses
system.cpu0.dcache.WriteReq_misses::total         2388                       # number of WriteReq misses
system.cpu0.dcache.LoadLockedReq_misses::cpu0.data            3                       # number of LoadLockedReq misses
system.cpu0.dcache.LoadLockedReq_misses::total            3                       # number of LoadLockedReq misses
system.cpu0.dcache.StoreCondReq_misses::cpu0.data            1                       # number of StoreCondReq misses
system.cpu0.dcache.StoreCondReq_misses::total            1                       # number of StoreCondReq misses
system.cpu0.dcache.demand_misses::cpu0.data         2606                       # number of demand (read+write) misses
system.cpu0.dcache.demand_misses::total          2606                       # number of demand (read+write) misses
system.cpu0.dcache.overall_misses::cpu0.data         2606                       # number of overall misses
system.cpu0.dcache.overall_misses::total         2606                       # number of overall misses
system.cpu0.dcache.ReadReq_miss_latency::cpu0.data      9873990                       # number of ReadReq miss cycles
system.cpu0.dcache.ReadReq_miss_latency::total      9873990                       # number of ReadReq miss cycles
system.cpu0.dcache.WriteReq_miss_latency::cpu0.data    119908000                       # number of WriteReq miss cycles
system.cpu0.dcache.WriteReq_miss_latency::total    119908000                       # number of WriteReq miss cycles
system.cpu0.dcache.LoadLockedReq_miss_latency::cpu0.data       133500                       # number of LoadLockedReq miss cycles
system.cpu0.dcache.LoadLockedReq_miss_latency::total       133500                       # number of LoadLockedReq miss cycles
system.cpu0.dcache.StoreCondReq_miss_latency::cpu0.data         7500                       # number of StoreCondReq miss cycles
system.cpu0.dcache.StoreCondReq_miss_latency::total         7500                       # number of StoreCondReq miss cycles
system.cpu0.dcache.demand_miss_latency::cpu0.data    129781990                       # number of demand (read+write) miss cycles
system.cpu0.dcache.demand_miss_latency::total    129781990                       # number of demand (read+write) miss cycles
system.cpu0.dcache.overall_miss_latency::cpu0.data    129781990                       # number of overall miss cycles
system.cpu0.dcache.overall_miss_latency::total    129781990                       # number of overall miss cycles
system.cpu0.dcache.ReadReq_accesses::cpu0.data      8870409                       # number of ReadReq accesses(hits+misses)
system.cpu0.dcache.ReadReq_accesses::total      8870409                       # number of ReadReq accesses(hits+misses)
system.cpu0.dcache.WriteReq_accesses::cpu0.data      8871888                       # number of WriteReq accesses(hits+misses)
system.cpu0.dcache.WriteReq_accesses::total      8871888                       # number of WriteReq accesses(hits+misses)
system.cpu0.dcache.LoadLockedReq_accesses::cpu0.data           25                       # number of LoadLockedReq accesses(hits+misses)
system.cpu0.dcache.LoadLockedReq_accesses::total           25                       # number of LoadLockedReq accesses(hits+misses)
system.cpu0.dcache.StoreCondReq_accesses::cpu0.data           25                       # number of StoreCondReq accesses(hits+misses)
system.cpu0.dcache.StoreCondReq_accesses::total           25                       # number of StoreCondReq accesses(hits+misses)
system.cpu0.dcache.demand_accesses::cpu0.data     17742297                       # number of demand (read+write) accesses
system.cpu0.dcache.demand_accesses::total     17742297                       # number of demand (read+write) accesses
system.cpu0.dcache.overall_accesses::cpu0.data     17742297                       # number of overall (read+write) accesses
system.cpu0.dcache.overall_accesses::total     17742297                       # number of overall (read+write) accesses
system.cpu0.dcache.ReadReq_miss_rate::cpu0.data     0.000025                       # miss rate for ReadReq accesses
system.cpu0.dcache.ReadReq_miss_rate::total     0.000025                       # miss rate for ReadReq accesses
system.cpu0.dcache.WriteReq_miss_rate::cpu0.data     0.000269                       # miss rate for WriteReq accesses
system.cpu0.dcache.WriteReq_miss_rate::total     0.000269                       # miss rate for WriteReq accesses
system.cpu0.dcache.LoadLockedReq_miss_rate::cpu0.data     0.120000                       # miss rate for LoadLockedReq accesses
system.cpu0.dcache.LoadLockedReq_miss_rate::total     0.120000                       # miss rate for LoadLockedReq accesses
system.cpu0.dcache.StoreCondReq_miss_rate::cpu0.data     0.040000                       # miss rate for StoreCondReq accesses
system.cpu0.dcache.StoreCondReq_miss_rate::total     0.040000                       # miss rate for StoreCondReq accesses
system.cpu0.dcache.demand_miss_rate::cpu0.data     0.000147                       # miss rate for demand accesses
system.cpu0.dcache.demand_miss_rate::total     0.000147                       # miss rate for demand accesses
system.cpu0.dcache.overall_miss_rate::cpu0.data     0.000147                       # miss rate for overall accesses
system.cpu0.dcache.overall_miss_rate::total     0.000147                       # miss rate for overall accesses
system.cpu0.dcache.ReadReq_avg_miss_latency::cpu0.data 45293.532110                       # average ReadReq miss latency
system.cpu0.dcache.ReadReq_avg_miss_latency::total 45293.532110                       # average ReadReq miss latency
system.cpu0.dcache.WriteReq_avg_miss_latency::cpu0.data 50212.730318                       # average WriteReq miss latency
system.cpu0.dcache.WriteReq_avg_miss_latency::total 50212.730318                       # average WriteReq miss latency
system.cpu0.dcache.LoadLockedReq_avg_miss_latency::cpu0.data        44500                       # average LoadLockedReq miss latency
system.cpu0.dcache.LoadLockedReq_avg_miss_latency::total        44500                       # average LoadLockedReq miss latency
system.cpu0.dcache.StoreCondReq_avg_miss_latency::cpu0.data         7500                       # average StoreCondReq miss latency
system.cpu0.dcache.StoreCondReq_avg_miss_latency::total         7500                       # average StoreCondReq miss latency
system.cpu0.dcache.demand_avg_miss_latency::cpu0.data 49801.224098                       # average overall miss latency
system.cpu0.dcache.demand_avg_miss_latency::total 49801.224098                       # average overall miss latency
system.cpu0.dcache.overall_avg_miss_latency::cpu0.data 49801.224098                       # average overall miss latency
system.cpu0.dcache.overall_avg_miss_latency::total 49801.224098                       # average overall miss latency
system.cpu0.dcache.blocked_cycles::no_mshrs            0                       # number of cycles access was blocked
system.cpu0.dcache.blocked_cycles::no_targets            0                       # number of cycles access was blocked
system.cpu0.dcache.blocked::no_mshrs                0                       # number of cycles access was blocked
system.cpu0.dcache.blocked::no_targets              0                       # number of cycles access was blocked
system.cpu0.dcache.avg_blocked_cycles::no_mshrs          nan                       # average number of cycles each access was blocked
system.cpu0.dcache.avg_blocked_cycles::no_targets          nan                       # average number of cycles each access was blocked
system.cpu0.dcache.fast_writes                      0                       # number of fast writes performed
system.cpu0.dcache.cache_copies                     0                       # number of cache copies performed
system.cpu0.dcache.writebacks::writebacks           15                       # number of writebacks
system.cpu0.dcache.writebacks::total               15                       # number of writebacks
system.cpu0.dcache.ReadReq_mshr_hits::cpu0.data           79                       # number of ReadReq MSHR hits
system.cpu0.dcache.ReadReq_mshr_hits::total           79                       # number of ReadReq MSHR hits
system.cpu0.dcache.WriteReq_mshr_hits::cpu0.data         2200                       # number of WriteReq MSHR hits
system.cpu0.dcache.WriteReq_mshr_hits::total         2200                       # number of WriteReq MSHR hits
system.cpu0.dcache.LoadLockedReq_mshr_hits::cpu0.data            3                       # number of LoadLockedReq MSHR hits
system.cpu0.dcache.LoadLockedReq_mshr_hits::total            3                       # number of LoadLockedReq MSHR hits
system.cpu0.dcache.demand_mshr_hits::cpu0.data         2279                       # number of demand (read+write) MSHR hits
system.cpu0.dcache.demand_mshr_hits::total         2279                       # number of demand (read+write) MSHR hits
system.cpu0.dcache.overall_mshr_hits::cpu0.data         2279                       # number of overall MSHR hits
system.cpu0.dcache.overall_mshr_hits::total         2279                       # number of overall MSHR hits
system.cpu0.dcache.ReadReq_mshr_misses::cpu0.data          139                       # number of ReadReq MSHR misses
system.cpu0.dcache.ReadReq_mshr_misses::total          139                       # number of ReadReq MSHR misses
system.cpu0.dcache.WriteReq_mshr_misses::cpu0.data          188                       # number of WriteReq MSHR misses
system.cpu0.dcache.WriteReq_mshr_misses::total          188                       # number of WriteReq MSHR misses
system.cpu0.dcache.StoreCondReq_mshr_misses::cpu0.data            1                       # number of StoreCondReq MSHR misses
system.cpu0.dcache.StoreCondReq_mshr_misses::total            1                       # number of StoreCondReq MSHR misses
system.cpu0.dcache.demand_mshr_misses::cpu0.data          327                       # number of demand (read+write) MSHR misses
system.cpu0.dcache.demand_mshr_misses::total          327                       # number of demand (read+write) MSHR misses
system.cpu0.dcache.overall_mshr_misses::cpu0.data          327                       # number of overall MSHR misses
system.cpu0.dcache.overall_mshr_misses::total          327                       # number of overall MSHR misses
system.cpu0.dcache.ReadReq_mshr_miss_latency::cpu0.data      6134506                       # number of ReadReq MSHR miss cycles
system.cpu0.dcache.ReadReq_mshr_miss_latency::total      6134506                       # number of ReadReq MSHR miss cycles
system.cpu0.dcache.WriteReq_mshr_miss_latency::cpu0.data     10249500                       # number of WriteReq MSHR miss cycles
system.cpu0.dcache.WriteReq_mshr_miss_latency::total     10249500                       # number of WriteReq MSHR miss cycles
system.cpu0.dcache.StoreCondReq_mshr_miss_latency::cpu0.data         4500                       # number of StoreCondReq MSHR miss cycles
system.cpu0.dcache.StoreCondReq_mshr_miss_latency::total         4500                       # number of StoreCondReq MSHR miss cycles
system.cpu0.dcache.demand_mshr_miss_latency::cpu0.data     16384006                       # number of demand (read+write) MSHR miss cycles
system.cpu0.dcache.demand_mshr_miss_latency::total     16384006                       # number of demand (read+write) MSHR miss cycles
system.cpu0.dcache.overall_mshr_miss_latency::cpu0.data     16384006                       # number of overall MSHR miss cycles
system.cpu0.dcache.overall_mshr_miss_latency::total     16384006                       # number of overall MSHR miss cycles
system.cpu0.dcache.ReadReq_mshr_miss_rate::cpu0.data     0.000016                       # mshr miss rate for ReadReq accesses
system.cpu0.dcache.ReadReq_mshr_miss_rate::total     0.000016                       # mshr miss rate for ReadReq accesses
system.cpu0.dcache.WriteReq_mshr_miss_rate::cpu0.data     0.000021                       # mshr miss rate for WriteReq accesses
system.cpu0.dcache.WriteReq_mshr_miss_rate::total     0.000021                       # mshr miss rate for WriteReq accesses
system.cpu0.dcache.StoreCondReq_mshr_miss_rate::cpu0.data     0.040000                       # mshr miss rate for StoreCondReq accesses
system.cpu0.dcache.StoreCondReq_mshr_miss_rate::total     0.040000                       # mshr miss rate for StoreCondReq accesses
system.cpu0.dcache.demand_mshr_miss_rate::cpu0.data     0.000018                       # mshr miss rate for demand accesses
system.cpu0.dcache.demand_mshr_miss_rate::total     0.000018                       # mshr miss rate for demand accesses
system.cpu0.dcache.overall_mshr_miss_rate::cpu0.data     0.000018                       # mshr miss rate for overall accesses
system.cpu0.dcache.overall_mshr_miss_rate::total     0.000018                       # mshr miss rate for overall accesses
system.cpu0.dcache.ReadReq_avg_mshr_miss_latency::cpu0.data 44133.136691                       # average ReadReq mshr miss latency
system.cpu0.dcache.ReadReq_avg_mshr_miss_latency::total 44133.136691                       # average ReadReq mshr miss latency
system.cpu0.dcache.WriteReq_avg_mshr_miss_latency::cpu0.data 54518.617021                       # average WriteReq mshr miss latency
system.cpu0.dcache.WriteReq_avg_mshr_miss_latency::total 54518.617021                       # average WriteReq mshr miss latency
system.cpu0.dcache.StoreCondReq_avg_mshr_miss_latency::cpu0.data         4500                       # average StoreCondReq mshr miss latency
system.cpu0.dcache.StoreCondReq_avg_mshr_miss_latency::total         4500                       # average StoreCondReq mshr miss latency
system.cpu0.dcache.demand_avg_mshr_miss_latency::cpu0.data 50103.993884                       # average overall mshr miss latency
system.cpu0.dcache.demand_avg_mshr_miss_latency::total 50103.993884                       # average overall mshr miss latency
system.cpu0.dcache.overall_avg_mshr_miss_latency::cpu0.data 50103.993884                       # average overall mshr miss latency
system.cpu0.dcache.overall_avg_mshr_miss_latency::total 50103.993884                       # average overall mshr miss latency
system.cpu0.dcache.no_allocate_misses               0                       # Number of misses that were no-allocate
system.cpu0.icache.tags.replacements               64                       # number of replacements
system.cpu0.icache.tags.tagsinuse          290.817438                       # Cycle average of tags in use
system.cpu0.icache.tags.total_refs               1549                       # Total number of references to valid blocks.
system.cpu0.icache.tags.sampled_refs              386                       # Sample count of references to valid blocks.
system.cpu0.icache.tags.avg_refs             4.012953                       # Average number of references to valid blocks.
system.cpu0.icache.tags.warmup_cycle                0                       # Cycle when the warmup percentage was hit.
system.cpu0.icache.tags.occ_blocks::cpu0.inst   290.817438                       # Average occupied blocks per requestor
system.cpu0.icache.tags.occ_percent::cpu0.inst     0.568003                       # Average percentage of cache occupancy
system.cpu0.icache.tags.occ_percent::total     0.568003                       # Average percentage of cache occupancy
system.cpu0.icache.tags.occ_task_id_blocks::1024          322                       # Occupied blocks per task id
system.cpu0.icache.tags.age_task_id_blocks_1024::0           44                       # Occupied blocks per task id
system.cpu0.icache.tags.age_task_id_blocks_1024::4          278                       # Occupied blocks per task id
system.cpu0.icache.tags.occ_task_id_percent::1024     0.628906                       # Percentage of cache occupancy per task id
system.cpu0.icache.tags.tag_accesses             4378                       # Number of tag accesses
system.cpu0.icache.tags.data_accesses            4378                       # Number of data accesses
system.cpu0.icache.ReadReq_hits::cpu0.inst         1549                       # number of ReadReq hits
system.cpu0.icache.ReadReq_hits::total           1549                       # number of ReadReq hits
system.cpu0.icache.demand_hits::cpu0.inst         1549                       # number of demand (read+write) hits
system.cpu0.icache.demand_hits::total            1549                       # number of demand (read+write) hits
system.cpu0.icache.overall_hits::cpu0.inst         1549                       # number of overall hits
system.cpu0.icache.overall_hits::total           1549                       # number of overall hits
system.cpu0.icache.ReadReq_misses::cpu0.inst          447                       # number of ReadReq misses
system.cpu0.icache.ReadReq_misses::total          447                       # number of ReadReq misses
system.cpu0.icache.demand_misses::cpu0.inst          447                       # number of demand (read+write) misses
system.cpu0.icache.demand_misses::total           447                       # number of demand (read+write) misses
system.cpu0.icache.overall_misses::cpu0.inst          447                       # number of overall misses
system.cpu0.icache.overall_misses::total          447                       # number of overall misses
system.cpu0.icache.ReadReq_miss_latency::cpu0.inst     23163498                       # number of ReadReq miss cycles
system.cpu0.icache.ReadReq_miss_latency::total     23163498                       # number of ReadReq miss cycles
system.cpu0.icache.demand_miss_latency::cpu0.inst     23163498                       # number of demand (read+write) miss cycles
system.cpu0.icache.demand_miss_latency::total     23163498                       # number of demand (read+write) miss cycles
system.cpu0.icache.overall_miss_latency::cpu0.inst     23163498                       # number of overall miss cycles
system.cpu0.icache.overall_miss_latency::total     23163498                       # number of overall miss cycles
system.cpu0.icache.ReadReq_accesses::cpu0.inst         1996                       # number of ReadReq accesses(hits+misses)
system.cpu0.icache.ReadReq_accesses::total         1996                       # number of ReadReq accesses(hits+misses)
system.cpu0.icache.demand_accesses::cpu0.inst         1996                       # number of demand (read+write) accesses
system.cpu0.icache.demand_accesses::total         1996                       # number of demand (read+write) accesses
system.cpu0.icache.overall_accesses::cpu0.inst         1996                       # number of overall (read+write) accesses
system.cpu0.icache.overall_accesses::total         1996                       # number of overall (read+write) accesses
[...]
system.l2.demand_mshr_miss_rate::cpu4.inst     0.091512                       # mshr miss rate for demand accesses
system.l2.demand_mshr_miss_rate::cpu4.data     0.470717                       # mshr miss rate for demand accesses
system.l2.demand_mshr_miss_rate::total       0.441126                       # mshr miss rate for demand accesses
system.l2.overall_mshr_miss_rate::cpu0.inst     0.906736                       # mshr miss rate for overall accesses
system.l2.overall_mshr_miss_rate::cpu0.data     0.882911                       # mshr miss rate for overall accesses
system.l2.overall_mshr_miss_rate::cpu1.inst     0.086187                       # mshr miss rate for overall accesses
system.l2.overall_mshr_miss_rate::cpu1.data     0.476048                       # mshr miss rate for overall accesses
system.l2.overall_mshr_miss_rate::cpu2.inst     0.057039                       # mshr miss rate for overall accesses
system.l2.overall_mshr_miss_rate::cpu2.data     0.433464                       # mshr miss rate for overall accesses
system.l2.overall_mshr_miss_rate::cpu3.inst     0.137019                       # mshr miss rate for overall accesses
system.l2.overall_mshr_miss_rate::cpu3.data     0.483971                       # mshr miss rate for overall accesses
system.l2.overall_mshr_miss_rate::cpu4.inst     0.091512                       # mshr miss rate for overall accesses
system.l2.overall_mshr_miss_rate::cpu4.data     0.470717                       # mshr miss rate for overall accesses
system.l2.overall_mshr_miss_rate::total      0.441126                       # mshr miss rate for overall accesses
system.l2.ReadReq_avg_mshr_miss_latency::cpu0.inst 41035.714286                       # average ReadReq mshr miss latency
system.l2.ReadReq_avg_mshr_miss_latency::cpu0.data 42226.315789                       # average ReadReq mshr miss latency
system.l2.ReadReq_avg_mshr_miss_latency::cpu1.inst 40849.315068                       # average ReadReq mshr miss latency
system.l2.ReadReq_avg_mshr_miss_latency::cpu1.data 40534.704904                       # average ReadReq mshr miss latency
system.l2.ReadReq_avg_mshr_miss_latency::cpu2.inst 40670.212766                       # average ReadReq mshr miss latency
system.l2.ReadReq_avg_mshr_miss_latency::cpu2.data 40528.371602                       # average ReadReq mshr miss latency
system.l2.ReadReq_avg_mshr_miss_latency::cpu3.inst 40855.263158                       # average ReadReq mshr miss latency
system.l2.ReadReq_avg_mshr_miss_latency::cpu3.data 40518.693509                       # average ReadReq mshr miss latency
system.l2.ReadReq_avg_mshr_miss_latency::cpu4.inst 40811.594203                       # average ReadReq mshr miss latency
system.l2.ReadReq_avg_mshr_miss_latency::cpu4.data 40522.149303                       # average ReadReq mshr miss latency
system.l2.ReadReq_avg_mshr_miss_latency::total 40552.366175                       # average ReadReq mshr miss latency
system.l2.UpgradeReq_avg_mshr_miss_latency::cpu0.data        44000                       # average UpgradeReq mshr miss latency
system.l2.UpgradeReq_avg_mshr_miss_latency::cpu1.data 40537.482000                       # average UpgradeReq mshr miss latency
system.l2.UpgradeReq_avg_mshr_miss_latency::cpu2.data 40532.907326                       # average UpgradeReq mshr miss latency
system.l2.UpgradeReq_avg_mshr_miss_latency::cpu3.data 40536.756795                       # average UpgradeReq mshr miss latency
system.l2.UpgradeReq_avg_mshr_miss_latency::cpu4.data 40544.832656                       # average UpgradeReq mshr miss latency
system.l2.UpgradeReq_avg_mshr_miss_latency::total 40537.595914                       # average UpgradeReq mshr miss latency
system.l2.SCUpgradeReq_avg_mshr_miss_latency::cpu1.data 40511.388056                       # average SCUpgradeReq mshr miss latency
system.l2.SCUpgradeReq_avg_mshr_miss_latency::cpu2.data 40509.231125                       # average SCUpgradeReq mshr miss latency
system.l2.SCUpgradeReq_avg_mshr_miss_latency::cpu3.data 40508.512735                       # average SCUpgradeReq mshr miss latency
system.l2.SCUpgradeReq_avg_mshr_miss_latency::cpu4.data 40510.926361                       # average SCUpgradeReq mshr miss latency
system.l2.SCUpgradeReq_avg_mshr_miss_latency::total 40509.709170                       # average SCUpgradeReq mshr miss latency
system.l2.ReadExReq_avg_mshr_miss_latency::cpu0.data 40812.500000                       # average ReadExReq mshr miss latency
system.l2.ReadExReq_avg_mshr_miss_latency::cpu1.data 40876.811594                       # average ReadExReq mshr miss latency
system.l2.ReadExReq_avg_mshr_miss_latency::cpu2.data 40873.737374                       # average ReadExReq mshr miss latency
system.l2.ReadExReq_avg_mshr_miss_latency::cpu3.data 40764.285714                       # average ReadExReq mshr miss latency
system.l2.ReadExReq_avg_mshr_miss_latency::cpu4.data 40937.810945                       # average ReadExReq mshr miss latency
system.l2.ReadExReq_avg_mshr_miss_latency::total 40845.154845                       # average ReadExReq mshr miss latency
system.l2.demand_avg_mshr_miss_latency::cpu0.inst 41035.714286                       # average overall mshr miss latency
system.l2.demand_avg_mshr_miss_latency::cpu0.data 41293.906810                       # average overall mshr miss latency
system.l2.demand_avg_mshr_miss_latency::cpu1.inst 40849.315068                       # average overall mshr miss latency
system.l2.demand_avg_mshr_miss_latency::cpu1.data 40553.262579                       # average overall mshr miss latency
system.l2.demand_avg_mshr_miss_latency::cpu2.inst 40670.212766                       # average overall mshr miss latency
system.l2.demand_avg_mshr_miss_latency::cpu2.data 40545.522950                       # average overall mshr miss latency
system.l2.demand_avg_mshr_miss_latency::cpu3.inst 40855.263158                       # average overall mshr miss latency
system.l2.demand_avg_mshr_miss_latency::cpu3.data 40532.051282                       # average overall mshr miss latency
system.l2.demand_avg_mshr_miss_latency::cpu4.inst 40811.594203                       # average overall mshr miss latency
system.l2.demand_avg_mshr_miss_latency::cpu4.data 40543.805080                       # average overall mshr miss latency
system.l2.demand_avg_mshr_miss_latency::total 40570.162123                       # average overall mshr miss latency
system.l2.overall_avg_mshr_miss_latency::cpu0.inst 41035.714286                       # average overall mshr miss latency
system.l2.overall_avg_mshr_miss_latency::cpu0.data 41293.906810                       # average overall mshr miss latency
system.l2.overall_avg_mshr_miss_latency::cpu1.inst 40849.315068                       # average overall mshr miss latency
system.l2.overall_avg_mshr_miss_latency::cpu1.data 40553.262579                       # average overall mshr miss latency
system.l2.overall_avg_mshr_miss_latency::cpu2.inst 40670.212766                       # average overall mshr miss latency
system.l2.overall_avg_mshr_miss_latency::cpu2.data 40545.522950                       # average overall mshr miss latency
system.l2.overall_avg_mshr_miss_latency::cpu3.inst 40855.263158                       # average overall mshr miss latency
system.l2.overall_avg_mshr_miss_latency::cpu3.data 40532.051282                       # average overall mshr miss latency
system.l2.overall_avg_mshr_miss_latency::cpu4.inst 40811.594203                       # average overall mshr miss latency
system.l2.overall_avg_mshr_miss_latency::cpu4.data 40543.805080                       # average overall mshr miss latency
system.l2.overall_avg_mshr_miss_latency::total 40570.162123                       # average overall mshr miss latency
system.l2.no_allocate_misses                        0                       # Number of misses that were no-allocate
system.membus.trans_dist::ReadReq               15468                       # Transaction distribution
system.membus.trans_dist::ReadResp              15468                       # Transaction distribution
system.membus.trans_dist::Writeback               305                       # Transaction distribution
system.membus.trans_dist::UpgradeReq           126727                       # Transaction distribution
system.membus.trans_dist::SCUpgradeReq         102873                       # Transaction distribution
system.membus.trans_dist::UpgradeResp           93128                       # Transaction distribution
system.membus.trans_dist::ReadExReq              1008                       # Transaction distribution
system.membus.trans_dist::ReadExResp              999                       # Transaction distribution
system.membus.pkt_count_system.l2.mem_side::system.physmem.port       355976                       # Packet count per connected master and slave (bytes)
system.membus.pkt_count::total                 355976                       # Packet count per connected master and slave (bytes)
system.membus.pkt_size_system.l2.mem_side::system.physmem.port      1073408                       # Cumulative packet size per connected master and slave (bytes)
system.membus.pkt_size::total                 1073408                       # Cumulative packet size per connected master and slave (bytes)
system.membus.snoops                           136481                       # Total snoops (count)
system.membus.snoop_fanout::samples            246682                       # Request fanout histogram
system.membus.snoop_fanout::mean                    0                       # Request fanout histogram
system.membus.snoop_fanout::stdev                   0                       # Request fanout histogram
system.membus.snoop_fanout::underflows              0      0.00%      0.00% # Request fanout histogram
system.membus.snoop_fanout::0                  246682    100.00%    100.00% # Request fanout histogram
system.membus.snoop_fanout::1                       0      0.00%    100.00% # Request fanout histogram
system.membus.snoop_fanout::overflows               0      0.00%    100.00% # Request fanout histogram
system.membus.snoop_fanout::min_value               0                       # Request fanout histogram
system.membus.snoop_fanout::max_value               0                       # Request fanout histogram
system.membus.snoop_fanout::total              246682                       # Request fanout histogram
system.membus.reqLayer0.occupancy           164961423                       # Layer occupancy (ticks)
system.membus.reqLayer0.utilization               0.9                       # Layer utilization (%)
system.membus.respLayer1.occupancy          228567618                       # Layer occupancy (ticks)
system.membus.respLayer1.utilization              1.3                       # Layer utilization (%)
system.tol2bus.trans_dist::ReadReq             364814                       # Transaction distribution
system.tol2bus.trans_dist::ReadResp            364784                       # Transaction distribution
system.tol2bus.trans_dist::ReadRespWithInvalidate           30                       # Transaction distribution
system.tol2bus.trans_dist::Writeback             2017                       # Transaction distribution
system.tol2bus.trans_dist::UpgradeReq          126729                       # Transaction distribution
system.tol2bus.trans_dist::SCUpgradeReq        102876                       # Transaction distribution
system.tol2bus.trans_dist::UpgradeResp         229605                       # Transaction distribution
system.tol2bus.trans_dist::SCUpgradeFailReq        18675                       # Transaction distribution
system.tol2bus.trans_dist::UpgradeFailResp        18675                       # Transaction distribution
system.tol2bus.trans_dist::ReadExReq             1738                       # Transaction distribution
system.tol2bus.trans_dist::ReadExResp            1738                       # Transaction distribution
system.tol2bus.pkt_count_system.cpu0.icache.mem_side::system.l2.cpu_side          772                       # Packet count per connected master and slave (bytes)
system.tol2bus.pkt_count_system.cpu0.dcache.mem_side::system.l2.cpu_side          661                       # Packet count per connected master and slave (bytes)
system.tol2bus.pkt_count_system.cpu1.icache.mem_side::system.l2.cpu_side         1694                       # Packet count per connected master and slave (bytes)
system.tol2bus.pkt_count_system.cpu1.dcache.mem_side::system.l2.cpu_side       124140                       # Packet count per connected master and slave (bytes)
system.tol2bus.pkt_count_system.cpu2.icache.mem_side::system.l2.cpu_side         1648                       # Packet count per connected master and slave (bytes)
system.tol2bus.pkt_count_system.cpu2.dcache.mem_side::system.l2.cpu_side       213944                       # Packet count per connected master and slave (bytes)
system.tol2bus.pkt_count_system.cpu3.icache.mem_side::system.l2.cpu_side         1664                       # Packet count per connected master and slave (bytes)
system.tol2bus.pkt_count_system.cpu3.dcache.mem_side::system.l2.cpu_side       204995                       # Packet count per connected master and slave (bytes)
system.tol2bus.pkt_count_system.cpu4.icache.mem_side::system.l2.cpu_side         1508                       # Packet count per connected master and slave (bytes)
system.tol2bus.pkt_count_system.cpu4.dcache.mem_side::system.l2.cpu_side       196290                       # Packet count per connected master and slave (bytes)
system.tol2bus.pkt_count::total                747316                       # Packet count per connected master and slave (bytes)
system.tol2bus.pkt_size_system.cpu0.icache.mem_side::system.l2.cpu_side        24704                       # Cumulative packet size per connected master and slave (bytes)
system.tol2bus.pkt_size_system.cpu0.dcache.mem_side::system.l2.cpu_side        21184                       # Cumulative packet size per connected master and slave (bytes)
system.tol2bus.pkt_size_system.cpu1.icache.mem_side::system.l2.cpu_side        54208                       # Cumulative packet size per connected master and slave (bytes)
system.tol2bus.pkt_size_system.cpu1.dcache.mem_side::system.l2.cpu_side       355008                       # Cumulative packet size per connected master and slave (bytes)
system.tol2bus.pkt_size_system.cpu2.icache.mem_side::system.l2.cpu_side        52736                       # Cumulative packet size per connected master and slave (bytes)
system.tol2bus.pkt_size_system.cpu2.dcache.mem_side::system.l2.cpu_side       623872                       # Cumulative packet size per connected master and slave (bytes)
system.tol2bus.pkt_size_system.cpu3.icache.mem_side::system.l2.cpu_side        53248                       # Cumulative packet size per connected master and slave (bytes)
system.tol2bus.pkt_size_system.cpu3.dcache.mem_side::system.l2.cpu_side       732416                       # Cumulative packet size per connected master and slave (bytes)
system.tol2bus.pkt_size_system.cpu4.icache.mem_side::system.l2.cpu_side        48256                       # Cumulative packet size per connected master and slave (bytes)
system.tol2bus.pkt_size_system.cpu4.dcache.mem_side::system.l2.cpu_side       552832                       # Cumulative packet size per connected master and slave (bytes)
system.tol2bus.pkt_size::total                2518464                       # Cumulative packet size per connected master and slave (bytes)
system.tol2bus.snoops                          484365                       # Total snoops (count)
system.tol2bus.snoop_fanout::samples           616849                       # Request fanout histogram
system.tol2bus.snoop_fanout::mean                   9                       # Request fanout histogram
system.tol2bus.snoop_fanout::stdev                  0                       # Request fanout histogram
system.tol2bus.snoop_fanout::underflows             0      0.00%      0.00% # Request fanout histogram
system.tol2bus.snoop_fanout::0                      0      0.00%      0.00% # Request fanout histogram
system.tol2bus.snoop_fanout::1                      0      0.00%      0.00% # Request fanout histogram
system.tol2bus.snoop_fanout::2                      0      0.00%      0.00% # Request fanout histogram
system.tol2bus.snoop_fanout::3                      0      0.00%      0.00% # Request fanout histogram
system.tol2bus.snoop_fanout::4                      0      0.00%      0.00% # Request fanout histogram
system.tol2bus.snoop_fanout::5                      0      0.00%      0.00% # Request fanout histogram
system.tol2bus.snoop_fanout::6                      0      0.00%      0.00% # Request fanout histogram
system.tol2bus.snoop_fanout::7                      0      0.00%      0.00% # Request fanout histogram
system.tol2bus.snoop_fanout::8                      0      0.00%      0.00% # Request fanout histogram
system.tol2bus.snoop_fanout::9                 616849    100.00%    100.00% # Request fanout histogram
system.tol2bus.snoop_fanout::10                     0      0.00%    100.00% # Request fanout histogram
system.tol2bus.snoop_fanout::overflows              0      0.00%    100.00% # Request fanout histogram
system.tol2bus.snoop_fanout::min_value              9                       # Request fanout histogram
system.tol2bus.snoop_fanout::max_value              9                       # Request fanout histogram
system.tol2bus.snoop_fanout::total             616849                       # Request fanout histogram
system.tol2bus.reqLayer0.occupancy          312659547                       # Layer occupancy (ticks)
system.tol2bus.reqLayer0.utilization              1.8                       # Layer utilization (%)
system.tol2bus.respLayer0.occupancy            579998                       # Layer occupancy (ticks)
system.tol2bus.respLayer0.utilization             0.0                       # Layer utilization (%)
system.tol2bus.respLayer1.occupancy            489994                       # Layer occupancy (ticks)
system.tol2bus.respLayer1.utilization             0.0                       # Layer utilization (%)
system.tol2bus.respLayer4.occupancy           1289442                       # Layer occupancy (ticks)
system.tol2bus.respLayer4.utilization             0.0                       # Layer utilization (%)
system.tol2bus.respLayer5.occupancy         120842282                       # Layer occupancy (ticks)
system.tol2bus.respLayer5.utilization             0.7                       # Layer utilization (%)
system.tol2bus.respLayer8.occupancy           1261912                       # Layer occupancy (ticks)
system.tol2bus.respLayer8.utilization             0.0                       # Layer utilization (%)
system.tol2bus.respLayer9.occupancy         196045511                       # Layer occupancy (ticks)
system.tol2bus.respLayer9.utilization             1.1                       # Layer utilization (%)
system.tol2bus.respLayer12.occupancy          1279402                       # Layer occupancy (ticks)
system.tol2bus.respLayer12.utilization            0.0                       # Layer utilization (%)
system.tol2bus.respLayer13.occupancy        184942676                       # Layer occupancy (ticks)
system.tol2bus.respLayer13.utilization            1.0                       # Layer utilization (%)
system.tol2bus.respLayer16.occupancy          1161388                       # Layer occupancy (ticks)
system.tol2bus.respLayer16.utilization            0.0                       # Layer utilization (%)
system.tol2bus.respLayer17.occupancy        195437796                       # Layer occupancy (ticks)
system.tol2bus.respLayer17.utilization            1.1                       # Layer utilization (%)

---------- End Simulation Statistics   ----------
